BTM00001
  CDK     09122622072D

 21 24  0  0  1  0  0  0  0  0999 V2000
    2.3787    3.4316    0.0000 C   0  0  0  0  0  0  0  0  0  0  0  0
    2.2200    1.9400    0.0000 C   0  0  2  0  0  0  0  0  0  0  0  0
    0.9200    2.6900    0.0000 C   0  0  0  0  0  0  0  0  0  0  0  0
   -0.3800    1.9400    0.0000 C   0  0  0  0  0  0  0  0  0  0  0  0
   -0.3800    0.4400    0.0000 C   0  0  1  0  0  0  0  0  0  0  0  0
    0.9200   -0.3100    0.0000 C   0  0  1  0  0  0  0  0  0  0  0  0
    0.9200   -1.8100    0.0000 C   0  0  0  0  0  0  0  0  0  0  0  0
   -0.3800   -2.5600    0.0000 C   0  0  0  0  0  0  0  0  0  0  0  0
   -1.6800   -1.8100    0.0000 C   0  0  0  0  0  0  0  0  0  0  0  0
   -2.9800   -2.5600    0.0000 C   0  0  0  0  0  0  0  0  0  0  0  0
   -4.2800   -1.8100    0.0000 C   0  0  0  0  0  0  0  0  0  0  0  0
   -5.5789   -2.5602    0.0000 O   0  0  0  0  0  0  0  0  0  0  0  0
   -4.2800   -0.3100    0.0000 C   0  0  0  0  0  0  0  0  0  0  0  0
   -2.9800    0.4400    0.0000 C   0  0  0  0  0  0  0  0  0  0  0  0
   -1.6800   -0.3100    0.0000 C   0  0  2  0  0  0  0  0  0  0  0  0
   -1.6800    1.1900    0.0000 C   0  0  0  0  0  0  0  0  0  0  0  0
    2.2200    0.4400    0.0000 C   0  0  2  0  0  0  0  0  0  0  0  0
    3.6500   -0.0200    0.0000 C   0  0  0  0  0  0  0  0  0  0  0  0
    4.5300    1.1900    0.0000 C   0  0  0  0  0  0  0  0  0  0  0  0
    3.6500    2.4000    0.0000 C   0  0  2  0  0  0  0  0  0  0  0  0
    4.1153    3.8260    0.0000 O   0  0  0  0  0  0  0  0  0  0  0  0
  2  1  1  1  0  0  0
  2  3  1  0  0  0  0
  3  4  1  0  0  0  0
  5  4  1  1  0  0  0
  5  6  1  0  0  0  0
  6  7  1  6  0  0  0
  7  8  1  0  0  0  0
  8  9  1  0  0  0  0
  9 10  2  0  0  0  0
 10 11  1  0  0  0  0
 11 12  2  0  0  0  0
 11 13  1  0  0  0  0
 13 14  1  0  0  0  0
 14 15  1  0  0  0  0
  9 15  1  0  0  0  0
  5 15  1  0  0  0  0
 15 16  1  1  0  0  0
  6 17  1  0  0  0  0
  2 17  1  0  0  0  0
 17 18  1  1  0  0  0
 18 19  1  0  0  0  0
 19 20  1  0  0  0  0
  2 20  1  0  0  0  0
 20 21  1  1  0  0  0
M  END
> <InChI>
InChI=1S/C19H28O2/c1-18-9-7-13(20)11-12(18)3-4-14-15-5-6-17(21)19(15,2)10-8-16(14)18/h11,14-17,21H,3-10H2,1-2H3/t14-,15-,16-,17-,18-,19-/m0/s1

> <InChIKey>
MUMGGOZAMZWBJJ-DYKIIFRCSA-N

> <SMILES>
C[C@]12CC[C@H]3[C@@H](CCC4=CC(=O)CC[C@@]43C)[C@@H]1CC[C@@H]2O

> <Synonyms>


> <PUBCHEM_CID>


> <Molecular_formula>
C19H28O2

> <Major_Isotope_Mass>
288.208930136

> <ALogP>
3.3332999999999986

> <Lipinski_Violations>
0

> <Insecticide_Likeness_Violations>
0

> <Post_Em_Herbicide_Likeness_Violations>
0

> <Metabolite_ID>
BTM00001

> <Reaction>
Dehydrogenation of secondary alcohol

> <Reaction_ID>
BTMR0031

> <Enzyme(s)>
EC 1.1.1.1

> <Biosystem>
HUMAN

> <Precursor_ID>


> <Precursor_SMILES>
C[C@]12CC[C@H]3[C@@H](CCC4=C[C@@H](O)CC[C@@]43C)[C@@H]1CC[C@@H]2O

> <Precursor_InChI>
InChI=1S/C19H30O2/c1-18-9-7-13(20)11-12(18)3-4-14-15-5-6-17(21)19(15,2)10-8-16(14)18/h11,13-17,20-21H,3-10H2,1-2H3/t13-,14-,15-,16-,17-,18-,19-/m0/s1

> <Precursor_InChIKey>
BTTWKVFKBPAFDK-LOVVWNRFSA-N

> <Precursor_ALogP>


> <Precursor_Major_Isotope_Mass>
290.2245

$$$$
BTM00002
  CDK     09122622072D

 21 24  0  0  1  0  0  0  0  0999 V2000
    2.3787    3.4316    0.0000 C   0  0  0  0  0  0  0  0  0  0  0  0
    2.2200    1.9400    0.0000 C   0  0  2  0  0  0  0  0  0  0  0  0
    0.9200    2.6900    0.0000 C   0  0  0  0  0  0  0  0  0  0  0  0
   -0.3800    1.9400    0.0000 C   0  0  0  0  0  0  0  0  0  0  0  0
   -0.3800    0.4400    0.0000 C   0  0  1  0  0  0  0  0  0  0  0  0
    0.9200   -0.3100    0.0000 C   0  0  1  0  0  0  0  0  0  0  0  0
    0.9200   -1.8100    0.0000 C   0  0  0  0  0  0  0  0  0  0  0  0
   -0.3800   -2.5600    0.0000 C   0  0  0  0  0  0  0  0  0  0  0  0
   -1.6800   -1.8100    0.0000 C   0  0  0  0  0  0  0  0  0  0  0  0
   -2.9800   -2.5600    0.0000 C   0  0  0  0  0  0  0  0  0  0  0  0
   -4.2800   -1.8100    0.0000 C   0  0  1  0  0  0  0  0  0  0  0  0
   -5.5789   -2.5602    0.0000 O   0  0  0  0  0  0  0  0  0  0  0  0
   -4.2800   -0.3100    0.0000 C   0  0  0  0  0  0  0  0  0  0  0  0
   -2.9800    0.4400    0.0000 C   0  0  0  0  0  0  0  0  0  0  0  0
   -1.6800   -0.3100    0.0000 C   0  0  2  0  0  0  0  0  0  0  0  0
   -1.6800    1.1900    0.0000 C   0  0  0  0  0  0  0  0  0  0  0  0
    2.2200    0.4400    0.0000 C   0  0  2  0  0  0  0  0  0  0  0  0
    3.6500   -0.0200    0.0000 C   0  0  0  0  0  0  0  0  0  0  0  0
    4.5300    1.1900    0.0000 C   0  0  0  0  0  0  0  0  0  0  0  0
    3.6500    2.4000    0.0000 C   0  0  0  0  0  0  0  0  0  0  0  0
    4.1153    3.8260    0.0000 O   0  0  0  0  0  0  0  0  0  0  0  0
  2  1  1  1  0  0  0
  2  3  1  0  0  0  0
  3  4  1  0  0  0  0
  5  4  1  1  0  0  0
  5  6  1  0  0  0  0
  6  7  1  6  0  0  0
  7  8  1  0  0  0  0
  8  9  1  0  0  0  0
  9 10  2  0  0  0  0
 10 11  1  0  0  0  0
 11 12  1  1  0  0  0
 11 13  1  0  0  0  0
 13 14  1  0  0  0  0
 14 15  1  0  0  0  0
  9 15  1  0  0  0  0
  5 15  1  0  0  0  0
 15 16  1  1  0  0  0
  6 17  1  0  0  0  0
  2 17  1  0  0  0  0
 17 18  1  1  0  0  0
 18 19  1  0  0  0  0
 19 20  1  0  0  0  0
  2 20  1  0  0  0  0
 20 21  2  0  0  0  0
M  END
> <InChI>
InChI=1S/C19H28O2/c1-18-9-7-13(20)11-12(18)3-4-14-15-5-6-17(21)19(15,2)10-8-16(14)18/h11,13-16,20H,3-10H2,1-2H3/t13-,14-,15-,16-,18-,19-/m0/s1

> <InChIKey>
VMYTXBKVYDESSJ-USOAJAOKSA-N

> <SMILES>
C[C@]12CC[C@H]3[C@@H](CCC4=C[C@@H](O)CC[C@@]43C)[C@@H]1CCC2=O

> <Synonyms>


> <PUBCHEM_CID>


> <Molecular_formula>
C19H28O2

> <Major_Isotope_Mass>
288.208930136

> <ALogP>
3.3332999999999986

> <Lipinski_Violations>
0

> <Insecticide_Likeness_Violations>
0

> <Post_Em_Herbicide_Likeness_Violations>
0

> <Metabolite_ID>
BTM00002

> <Reaction>
Dehydrogenation of 17-beta-hydroxysteroid

> <Reaction_ID>
BTMR0370

> <Enzyme(s)>
EC 1.1.1.239

> <Biosystem>
HUMAN

> <Precursor_ID>


> <Precursor_SMILES>
C[C@]12CC[C@H]3[C@@H](CCC4=C[C@@H](O)CC[C@@]43C)[C@@H]1CC[C@@H]2O

> <Precursor_InChI>
InChI=1S/C19H30O2/c1-18-9-7-13(20)11-12(18)3-4-14-15-5-6-17(21)19(15,2)10-8-16(14)18/h11,13-17,20-21H,3-10H2,1-2H3/t13-,14-,15-,16-,17-,18-,19-/m0/s1

> <Precursor_InChIKey>
BTTWKVFKBPAFDK-LOVVWNRFSA-N

> <Precursor_ALogP>


> <Precursor_Major_Isotope_Mass>
290.2245

$$$$
BTM00003
  CDK     09122622072D

 22 25  0  0  1  0  0  0  0  0999 V2000
    2.3787    3.4316    0.0000 C   0  0  0  0  0  0  0  0  0  0  0  0
    2.2200    1.9400    0.0000 C   0  0  2  0  0  0  0  0  0  0  0  0
    0.9200    2.6900    0.0000 C   0  0  0  0  0  0  0  0  0  0  0  0
   -0.3800    1.9400    0.0000 C   0  0  0  0  0  0  0  0  0  0  0  0
   -0.3800    0.4400    0.0000 C   0  0  1  0  0  0  0  0  0  0  0  0
    0.9200   -0.3100    0.0000 C   0  0  1  0  0  0  0  0  0  0  0  0
    0.9200   -1.8100    0.0000 C   0  0  0  0  0  0  0  0  0  0  0  0
   -0.3800   -2.5600    0.0000 C   0  0  0  0  0  0  0  0  0  0  0  0
   -1.6800   -1.8100    0.0000 C   0  0  0  0  0  0  0  0  0  0  0  0
   -2.9800   -2.5600    0.0000 C   0  0  0  0  0  0  0  0  0  0  0  0
   -4.2800   -1.8100    0.0000 C   0  0  1  0  0  0  0  0  0  0  0  0
   -5.5789   -2.5602    0.0000 O   0  0  0  0  0  0  0  0  0  0  0  0
   -4.2800   -0.3100    0.0000 C   0  0  0  0  0  0  0  0  0  0  0  0
   -2.9800    0.4400    0.0000 C   0  0  0  0  0  0  0  0  0  0  0  0
   -1.6800   -0.3100    0.0000 C   0  0  2  0  0  0  0  0  0  0  0  0
   -1.6800    1.1900    0.0000 C   0  0  0  0  0  0  0  0  0  0  0  0
    2.2200    0.4400    0.0000 C   0  0  2  0  0  0  0  0  0  0  0  0
    3.6500   -0.0200    0.0000 C   0  0  0  0  0  0  0  0  0  0  0  0
    4.5300    1.1900    0.0000 C   0  0  0  0  0  0  0  0  0  0  0  0
    3.6500    2.4000    0.0000 C   0  0  2  0  0  0  0  0  0  0  0  0
    4.1153    3.8260    0.0000 O   0  0  0  0  0  0  0  0  0  0  0  0
    2.2189   -2.5602    0.0000 O   0  0  0  0  0  0  0  0  0  0  0  0
  2  1  1  1  0  0  0
  2  3  1  0  0  0  0
  3  4  1  0  0  0  0
  5  4  1  1  0  0  0
  5  6  1  0  0  0  0
  6  7  1  6  0  0  0
  7  8  1  0  0  0  0
  8  9  1  0  0  0  0
  9 10  2  0  0  0  0
 10 11  1  0  0  0  0
 11 12  1  1  0  0  0
 11 13  1  0  0  0  0
 13 14  1  0  0  0  0
 14 15  1  0  0  0  0
  9 15  1  0  0  0  0
  5 15  1  0  0  0  0
 15 16  1  1  0  0  0
  6 17  1  0  0  0  0
  2 17  1  0  0  0  0
 17 18  1  1  0  0  0
 18 19  1  0  0  0  0
 19 20  1  0  0  0  0
  2 20  1  0  0  0  0
 20 21  1  1  0  0  0
 22  7  1  0  0  0  0
M  END
> <InChI>
InChI=1S/C19H30O3/c1-18-7-5-12(20)9-11(18)10-15(21)17-13-3-4-16(22)19(13,2)8-6-14(17)18/h9,12-17,20-22H,3-8,10H2,1-2H3/t12-,13-,14-,15?,16-,17-,18-,19-/m0/s1

> <InChIKey>
SVVBAQWKVKIHDH-DYAQEOPHSA-N

> <SMILES>
C[C@]12CC[C@H]3[C@@H](C(CC4=C[C@@H](O)CC[C@@]43C)O)[C@@H]1CC[C@@H]2O

> <Synonyms>


> <PUBCHEM_CID>


> <Molecular_formula>
C19H30O3

> <Major_Isotope_Mass>
306.21949481999997

> <ALogP>
2.2034000000000002

> <Lipinski_Violations>
0

> <Insecticide_Likeness_Violations>
1

> <Post_Em_Herbicide_Likeness_Violations>
1

> <Metabolite_ID>
BTM00003

> <Reaction>
7-Hydroxylation of sterol

> <Reaction_ID>
BTMR1244

> <Enzyme(s)>
EC 1.14.14.29
EC 1.14.14.32

> <Biosystem>
HUMAN

> <Precursor_ID>


> <Precursor_SMILES>
C[C@]12CC[C@H]3[C@@H](CCC4=C[C@@H](O)CC[C@@]43C)[C@@H]1CC[C@@H]2O

> <Precursor_InChI>
InChI=1S/C19H30O2/c1-18-9-7-13(20)11-12(18)3-4-14-15-5-6-17(21)19(15,2)10-8-16(14)18/h11,13-17,20-21H,3-10H2,1-2H3/t13-,14-,15-,16-,17-,18-,19-/m0/s1

> <Precursor_InChIKey>
BTTWKVFKBPAFDK-LOVVWNRFSA-N

> <Precursor_ALogP>


> <Precursor_Major_Isotope_Mass>
290.2245

$$$$
BTM00004
  CDK     09122622072D

 22 25  0  0  1  0  0  0  0  0999 V2000
    2.3787    3.4316    0.0000 C   0  0  0  0  0  0  0  0  0  0  0  0
    2.2200    1.9400    0.0000 C   0  0  2  0  0  0  0  0  0  0  0  0
    0.9200    2.6900    0.0000 C   0  0  0  0  0  0  0  0  0  0  0  0
   -0.3800    1.9400    0.0000 C   0  0  0  0  0  0  0  0  0  0  0  0
   -0.3800    0.4400    0.0000 C   0  0  1  0  0  0  0  0  0  0  0  0
    0.9200   -0.3100    0.0000 C   0  0  1  0  0  0  0  0  0  0  0  0
    0.9200   -1.8100    0.0000 C   0  0  0  0  0  0  0  0  0  0  0  0
   -0.3800   -2.5600    0.0000 C   0  0  0  0  0  0  0  0  0  0  0  0
   -1.6800   -1.8100    0.0000 C   0  0  0  0  0  0  0  0  0  0  0  0
   -2.9800   -2.5600    0.0000 C   0  0  0  0  0  0  0  0  0  0  0  0
   -4.2800   -1.8100    0.0000 C   0  0  1  0  0  0  0  0  0  0  0  0
   -5.5789   -2.5602    0.0000 O   0  0  0  0  0  0  0  0  0  0  0  0
   -4.2800   -0.3100    0.0000 C   0  0  0  0  0  0  0  0  0  0  0  0
   -2.9800    0.4400    0.0000 C   0  0  0  0  0  0  0  0  0  0  0  0
   -1.6800   -0.3100    0.0000 C   0  0  2  0  0  0  0  0  0  0  0  0
   -1.6800    1.1900    0.0000 C   0  0  0  0  0  0  0  0  0  0  0  0
    2.2200    0.4400    0.0000 C   0  0  2  0  0  0  0  0  0  0  0  0
    3.6500   -0.0200    0.0000 C   0  0  0  0  0  0  0  0  0  0  0  0
    4.5300    1.1900    0.0000 C   0  0  0  0  0  0  0  0  0  0  0  0
    3.6500    2.4000    0.0000 C   0  0  2  0  0  0  0  0  0  0  0  0
    4.1153    3.8260    0.0000 O   0  0  0  0  0  0  0  0  0  0  0  0
   -1.6789    2.6902    0.0000 O   0  0  0  0  0  0  0  0  0  0  0  0
  2  1  1  1  0  0  0
  2  3  1  0  0  0  0
  3  4  1  0  0  0  0
  5  4  1  1  0  0  0
  5  6  1  0  0  0  0
  6  7  1  6  0  0  0
  7  8  1  0  0  0  0
  8  9  1  0  0  0  0
  9 10  2  0  0  0  0
 10 11  1  0  0  0  0
 11 12  1  1  0  0  0
 11 13  1  0  0  0  0
 13 14  1  0  0  0  0
 14 15  1  0  0  0  0
  9 15  1  0  0  0  0
  5 15  1  0  0  0  0
 15 16  1  1  0  0  0
  6 17  1  0  0  0  0
  2 17  1  0  0  0  0
 17 18  1  1  0  0  0
 18 19  1  0  0  0  0
 19 20  1  0  0  0  0
  2 20  1  0  0  0  0
 20 21  1  1  0  0  0
 22  4  1  0  0  0  0
M  END
> <InChI>
InChI=1S/C19H30O3/c1-18-8-7-12(20)9-11(18)3-4-13-14-5-6-16(22)19(14,2)10-15(21)17(13)18/h9,12-17,20-22H,3-8,10H2,1-2H3/t12-,13-,14-,15?,16-,17+,18-,19-/m0/s1

> <InChIKey>
DGBKMNZLLCMVBU-YVKZUFEFSA-N

> <SMILES>
C[C@]12CC([C@H]3[C@@H](CCC4=C[C@@H](O)CC[C@@]43C)[C@@H]1CC[C@@H]2O)O

> <Synonyms>


> <PUBCHEM_CID>


> <Molecular_formula>
C19H30O3

> <Major_Isotope_Mass>
306.21949481999997

> <ALogP>
2.2034000000000002

> <Lipinski_Violations>
0

> <Insecticide_Likeness_Violations>
1

> <Post_Em_Herbicide_Likeness_Violations>
1

> <Metabolite_ID>
BTM00004

> <Reaction>
11-beta-Hydroxylation of sterol

> <Reaction_ID>
BTMR0406

> <Enzyme(s)>
EC 1.14.15.4

> <Biosystem>
HUMAN

> <Precursor_ID>


> <Precursor_SMILES>
C[C@]12CC[C@H]3[C@@H](CCC4=C[C@@H](O)CC[C@@]43C)[C@@H]1CC[C@@H]2O

> <Precursor_InChI>
InChI=1S/C19H30O2/c1-18-9-7-13(20)11-12(18)3-4-14-15-5-6-17(21)19(15,2)10-8-16(14)18/h11,13-17,20-21H,3-10H2,1-2H3/t13-,14-,15-,16-,17-,18-,19-/m0/s1

> <Precursor_InChIKey>
BTTWKVFKBPAFDK-LOVVWNRFSA-N

> <Precursor_ALogP>


> <Precursor_Major_Isotope_Mass>
290.2245

$$$$
BTM00005
  CDK     09122622072D

 33 37  0  0  1  0  0  0  0  0999 V2000
    2.4272    3.1517    0.0000 C   0  0  0  0  0  0  0  0  0  0  0  0
    2.2700    1.6600    0.0000 C   0  0  2  0  0  0  0  0  0  0  0  0
    0.9700    2.4100    0.0000 C   0  0  0  0  0  0  0  0  0  0  0  0
   -0.3300    1.6600    0.0000 C   0  0  0  0  0  0  0  0  0  0  0  0
   -0.3300    0.1600    0.0000 C   0  0  1  0  0  0  0  0  0  0  0  0
    0.9700   -0.5900    0.0000 C   0  0  1  0  0  0  0  0  0  0  0  0
    0.9700   -2.0900    0.0000 C   0  0  0  0  0  0  0  0  0  0  0  0
   -0.3300   -2.8400    0.0000 C   0  0  0  0  0  0  0  0  0  0  0  0
   -1.6300   -2.0900    0.0000 C   0  0  0  0  0  0  0  0  0  0  0  0
   -2.9300   -2.8400    0.0000 C   0  0  0  0  0  0  0  0  0  0  0  0
   -4.2300   -2.0900    0.0000 C   0  0  1  0  0  0  0  0  0  0  0  0
   -5.5289   -2.8402    0.0000 O   0  0  0  0  0  0  0  0  0  0  0  0
   -4.2300   -0.5900    0.0000 C   0  0  0  0  0  0  0  0  0  0  0  0
   -2.9300    0.1600    0.0000 C   0  0  0  0  0  0  0  0  0  0  0  0
   -1.6300   -0.5900    0.0000 C   0  0  2  0  0  0  0  0  0  0  0  0
   -1.6300    0.9100    0.0000 C   0  0  0  0  0  0  0  0  0  0  0  0
    2.2700    0.1600    0.0000 C   0  0  2  0  0  0  0  0  0  0  0  0
    3.6900   -0.3000    0.0000 C   0  0  0  0  0  0  0  0  0  0  0  0
    4.5700    0.9100    0.0000 C   0  0  0  0  0  0  0  0  0  0  0  0
    3.6900    2.1200    0.0000 C   0  0  2  0  0  0  0  0  0  0  0  0
    4.1538    3.5465    0.0000 O   0  0  0  0  0  0  0  0  0  0  0  0
   -8.1267   -4.3312    0.0000 O   0  0  0  0  0  0  0  0  0  0  0  0
   -8.1209   -2.8312    0.0000 C   0  0  0  0  0  0  0  0  0  0  0  0
   -9.4366   -2.0637    0.0000 C   0  0  0  0  0  0  0  0  0  0  0  0
  -10.7405   -2.8051    0.0000 O   0  0  0  0  0  0  0  0  0  0  0  0
   -9.4234   -0.5579    0.0000 C   0  0  0  0  0  0  0  0  0  0  0  0
  -10.7179    0.1999    0.0000 O   0  0  0  0  0  0  0  0  0  0  0  0
   -8.1306    0.1829    0.0000 C   0  0  0  0  0  0  0  0  0  0  0  0
   -6.8336   -0.5722    0.0000 O   0  0  0  0  0  0  0  0  0  0  0  0
   -6.8281   -2.0904    0.0000 C   0  0  0  0  0  0  0  0  0  0  0  0
   -8.1254    1.6829    0.0000 C   0  0  0  0  0  0  0  0  0  0  0  0
   -9.4219    2.4373    0.0000 O   0  0  0  0  0  0  0  0  0  0  0  0
   -6.8238    2.4284    0.0000 O   0  0  0  0  0  0  0  0  0  0  0  0
  2  1  1  1  0  0  0
  2  3  1  0  0  0  0
  3  4  1  0  0  0  0
  5  4  1  1  0  0  0
  5  6  1  0  0  0  0
  6  7  1  6  0  0  0
  7  8  1  0  0  0  0
  8  9  1  0  0  0  0
  9 10  2  0  0  0  0
 10 11  1  0  0  0  0
 11 12  1  1  0  0  0
 11 13  1  0  0  0  0
 13 14  1  0  0  0  0
 14 15  1  0  0  0  0
  9 15  1  0  0  0  0
  5 15  1  0  0  0  0
 15 16  1  1  0  0  0
  6 17  1  0  0  0  0
  2 17  1  0  0  0  0
 17 18  1  1  0  0  0
 18 19  1  0  0  0  0
 19 20  1  0  0  0  0
  2 20  1  0  0  0  0
 20 21  1  1  0  0  0
 22 23  1  0  0  0  0
 23 24  1  0  0  0  0
 24 25  1  0  0  0  0
 24 26  1  0  0  0  0
 26 27  1  0  0  0  0
 26 28  1  0  0  0  0
 28 29  1  0  0  0  0
 29 30  1  0  0  0  0
 23 30  1  0  0  0  0
 30 12  1  0  0  0  0
 28 31  1  0  0  0  0
 31 32  1  0  0  0  0
 31 33  2  0  0  0  0
M  END
> <InChI>
InChI=1S/C25H38O8/c1-24-9-7-13(32-23-20(29)18(27)19(28)21(33-23)22(30)31)11-12(24)3-4-14-15-5-6-17(26)25(15,2)10-8-16(14)24/h11,13-21,23,26-29H,3-10H2,1-2H3,(H,30,31)/t13-,14-,15-,16-,17-,18?,19?,20?,21?,23?,24-,25-/m0/s1

> <InChIKey>
KHDOXRRQDCRANI-WXAADJFLSA-N

> <SMILES>
C[C@]12CC[C@H]3[C@@H](CCC4=C[C@@H](OC5OC(C(C(C5O)O)O)C(O)=O)CC[C@@]43C)[C@@H]1CC[C@@H]2O

> <Synonyms>


> <PUBCHEM_CID>


> <Molecular_formula>
C25H38O8

> <Major_Isotope_Mass>
466.25666817599995

> <ALogP>
1.834799999999997

> <Lipinski_Violations>
0

> <Insecticide_Likeness_Violations>
1

> <Post_Em_Herbicide_Likeness_Violations>
1

> <Metabolite_ID>
BTM00005

> <Reaction>
3-OH-Glucuronidation of sterol

> <Reaction_ID>
BTMR0157

> <Enzyme(s)>
EC 2.4.1.17

> <Biosystem>
HUMAN

> <Precursor_ID>


> <Precursor_SMILES>
C[C@]12CC[C@H]3[C@@H](CCC4=C[C@@H](O)CC[C@@]43C)[C@@H]1CC[C@@H]2O

> <Precursor_InChI>
InChI=1S/C19H30O2/c1-18-9-7-13(20)11-12(18)3-4-14-15-5-6-17(21)19(15,2)10-8-16(14)18/h11,13-17,20-21H,3-10H2,1-2H3/t13-,14-,15-,16-,17-,18-,19-/m0/s1

> <Precursor_InChIKey>
BTTWKVFKBPAFDK-LOVVWNRFSA-N

> <Precursor_ALogP>


> <Precursor_Major_Isotope_Mass>
290.2245

$$$$
BTM00006
  CDK     09122622072D

 33 37  0  0  1  0  0  0  0  0999 V2000
    2.4272    3.1517    0.0000 C   0  0  0  0  0  0  0  0  0  0  0  0
    2.2700    1.6600    0.0000 C   0  0  2  0  0  0  0  0  0  0  0  0
    0.9700    2.4100    0.0000 C   0  0  0  0  0  0  0  0  0  0  0  0
   -0.3300    1.6600    0.0000 C   0  0  0  0  0  0  0  0  0  0  0  0
   -0.3300    0.1600    0.0000 C   0  0  1  0  0  0  0  0  0  0  0  0
    0.9700   -0.5900    0.0000 C   0  0  1  0  0  0  0  0  0  0  0  0
    0.9700   -2.0900    0.0000 C   0  0  0  0  0  0  0  0  0  0  0  0
   -0.3300   -2.8400    0.0000 C   0  0  0  0  0  0  0  0  0  0  0  0
   -1.6300   -2.0900    0.0000 C   0  0  0  0  0  0  0  0  0  0  0  0
   -2.9300   -2.8400    0.0000 C   0  0  0  0  0  0  0  0  0  0  0  0
   -4.2300   -2.0900    0.0000 C   0  0  1  0  0  0  0  0  0  0  0  0
   -5.5289   -2.8402    0.0000 O   0  0  0  0  0  0  0  0  0  0  0  0
   -4.2300   -0.5900    0.0000 C   0  0  0  0  0  0  0  0  0  0  0  0
   -2.9300    0.1600    0.0000 C   0  0  0  0  0  0  0  0  0  0  0  0
   -1.6300   -0.5900    0.0000 C   0  0  2  0  0  0  0  0  0  0  0  0
   -1.6300    0.9100    0.0000 C   0  0  0  0  0  0  0  0  0  0  0  0
    2.2700    0.1600    0.0000 C   0  0  2  0  0  0  0  0  0  0  0  0
    3.6900   -0.3000    0.0000 C   0  0  0  0  0  0  0  0  0  0  0  0
    4.5700    0.9100    0.0000 C   0  0  0  0  0  0  0  0  0  0  0  0
    3.6900    2.1200    0.0000 C   0  0  2  0  0  0  0  0  0  0  0  0
    4.1538    3.5465    0.0000 O   0  0  0  0  0  0  0  0  0  0  0  0
    5.0878    6.3924    0.0000 O   0  0  0  0  0  0  0  0  0  0  0  0
    6.0867    5.2734    0.0000 C   0  0  0  0  0  0  0  0  0  0  0  0
    7.5781    5.5829    0.0000 C   0  0  0  0  0  0  0  0  0  0  0  0
    8.0516    7.0062    0.0000 O   0  0  0  0  0  0  0  0  0  0  0  0
    8.5755    4.4547    0.0000 C   0  0  0  0  0  0  0  0  0  0  0  0
   10.0447    4.7572    0.0000 O   0  0  0  0  0  0  0  0  0  0  0  0
    8.1099    3.0393    0.0000 C   0  0  0  0  0  0  0  0  0  0  0  0
    6.6406    2.7331    0.0000 O   0  0  0  0  0  0  0  0  0  0  0  0
    5.6211    3.8581    0.0000 C   0  0  0  0  0  0  0  0  0  0  0  0
    9.1093    1.9208    0.0000 C   0  0  0  0  0  0  0  0  0  0  0  0
   10.5777    2.2271    0.0000 O   0  0  0  0  0  0  0  0  0  0  0  0
    8.6404    0.4960    0.0000 O   0  0  0  0  0  0  0  0  0  0  0  0
  2  1  1  1  0  0  0
  2  3  1  0  0  0  0
  3  4  1  0  0  0  0
  5  4  1  1  0  0  0
  5  6  1  0  0  0  0
  6  7  1  6  0  0  0
  7  8  1  0  0  0  0
  8  9  1  0  0  0  0
  9 10  2  0  0  0  0
 10 11  1  0  0  0  0
 11 12  1  1  0  0  0
 11 13  1  0  0  0  0
 13 14  1  0  0  0  0
 14 15  1  0  0  0  0
  9 15  1  0  0  0  0
  5 15  1  0  0  0  0
 15 16  1  1  0  0  0
  6 17  1  0  0  0  0
  2 17  1  0  0  0  0
 17 18  1  1  0  0  0
 18 19  1  0  0  0  0
 19 20  1  0  0  0  0
  2 20  1  0  0  0  0
 20 21  1  1  0  0  0
 22 23  1  0  0  0  0
 23 24  1  0  0  0  0
 24 25  1  0  0  0  0
 24 26  1  0  0  0  0
 26 27  1  0  0  0  0
 26 28  1  0  0  0  0
 28 29  1  0  0  0  0
 29 30  1  0  0  0  0
 23 30  1  0  0  0  0
 30 21  1  0  0  0  0
 28 31  1  0  0  0  0
 31 32  1  0  0  0  0
 31 33  2  0  0  0  0
M  END
> <InChI>
InChI=1S/C25H38O8/c1-24-9-7-13(26)11-12(24)3-4-14-15-5-6-17(25(15,2)10-8-16(14)24)32-23-20(29)18(27)19(28)21(33-23)22(30)31/h11,13-21,23,26-29H,3-10H2,1-2H3,(H,30,31)/t13-,14-,15-,16-,17-,18?,19?,20?,21?,23?,24-,25-/m0/s1

> <InChIKey>
ZIZJMOJJAZVROL-WXAADJFLSA-N

> <SMILES>
C[C@]12CC[C@H]3[C@@H](CCC4=C[C@@H](O)CC[C@@]43C)[C@@H]1CC[C@@H]2OC5OC(C(C(C5O)O)O)C(O)=O

> <Synonyms>


> <PUBCHEM_CID>


> <Molecular_formula>
C25H38O8

> <Major_Isotope_Mass>
466.256668176

> <ALogP>
1.834799999999997

> <Lipinski_Violations>
0

> <Insecticide_Likeness_Violations>
1

> <Post_Em_Herbicide_Likeness_Violations>
1

> <Metabolite_ID>
BTM00006

> <Reaction>
17-OH-Glucuronidation of sterol

> <Reaction_ID>
BTMR0163

> <Enzyme(s)>
EC 2.4.1.17

> <Biosystem>
HUMAN

> <Precursor_ID>


> <Precursor_SMILES>
C[C@]12CC[C@H]3[C@@H](CCC4=C[C@@H](O)CC[C@@]43C)[C@@H]1CC[C@@H]2O

> <Precursor_InChI>
InChI=1S/C19H30O2/c1-18-9-7-13(20)11-12(18)3-4-14-15-5-6-17(21)19(15,2)10-8-16(14)18/h11,13-17,20-21H,3-10H2,1-2H3/t13-,14-,15-,16-,17-,18-,19-/m0/s1

> <Precursor_InChIKey>
BTTWKVFKBPAFDK-LOVVWNRFSA-N

> <Precursor_ALogP>


> <Precursor_Major_Isotope_Mass>
290.2245

$$$$
BTM00007
  CDK     09122622072D

 32 36  0  0  1  0  0  0  0  0999 V2000
    2.4272    3.1517    0.0000 C   0  0  0  0  0  0  0  0  0  0  0  0
    2.2700    1.6600    0.0000 C   0  0  2  0  0  0  0  0  0  0  0  0
    0.9700    2.4100    0.0000 C   0  0  0  0  0  0  0  0  0  0  0  0
   -0.3300    1.6600    0.0000 C   0  0  0  0  0  0  0  0  0  0  0  0
   -0.3300    0.1600    0.0000 C   0  0  1  0  0  0  0  0  0  0  0  0
    0.9700   -0.5900    0.0000 C   0  0  1  0  0  0  0  0  0  0  0  0
    0.9700   -2.0900    0.0000 C   0  0  0  0  0  0  0  0  0  0  0  0
   -0.3300   -2.8400    0.0000 C   0  0  0  0  0  0  0  0  0  0  0  0
   -1.6300   -2.0900    0.0000 C   0  0  0  0  0  0  0  0  0  0  0  0
   -2.9300   -2.8400    0.0000 C   0  0  0  0  0  0  0  0  0  0  0  0
   -4.2300   -2.0900    0.0000 C   0  0  1  0  0  0  0  0  0  0  0  0
   -5.5289   -2.8402    0.0000 O   0  0  0  0  0  0  0  0  0  0  0  0
   -4.2300   -0.5900    0.0000 C   0  0  0  0  0  0  0  0  0  0  0  0
   -2.9300    0.1600    0.0000 C   0  0  0  0  0  0  0  0  0  0  0  0
   -1.6300   -0.5900    0.0000 C   0  0  2  0  0  0  0  0  0  0  0  0
   -1.6300    0.9100    0.0000 C   0  0  0  0  0  0  0  0  0  0  0  0
    2.2700    0.1600    0.0000 C   0  0  2  0  0  0  0  0  0  0  0  0
    3.6900   -0.3000    0.0000 C   0  0  0  0  0  0  0  0  0  0  0  0
    4.5700    0.9100    0.0000 C   0  0  0  0  0  0  0  0  0  0  0  0
    3.6900    2.1200    0.0000 C   0  0  2  0  0  0  0  0  0  0  0  0
    4.1538    3.5465    0.0000 O   0  0  0  0  0  0  0  0  0  0  0  0
   -9.4219    2.4373    0.0000 O   0  0  0  0  0  0  0  0  0  0  0  0
   -8.1254    1.6829    0.0000 C   0  0  0  0  0  0  0  0  0  0  0  0
   -8.1306    0.1829    0.0000 C   0  0  0  0  0  0  0  0  0  0  0  0
   -6.8336   -0.5722    0.0000 O   0  0  0  0  0  0  0  0  0  0  0  0
   -6.8281   -2.0904    0.0000 C   0  0  0  0  0  0  0  0  0  0  0  0
   -8.1209   -2.8312    0.0000 C   0  0  0  0  0  0  0  0  0  0  0  0
   -8.1267   -4.3312    0.0000 O   0  0  0  0  0  0  0  0  0  0  0  0
   -9.4366   -2.0637    0.0000 C   0  0  0  0  0  0  0  0  0  0  0  0
  -10.7405   -2.8051    0.0000 O   0  0  0  0  0  0  0  0  0  0  0  0
   -9.4234   -0.5579    0.0000 C   0  0  0  0  0  0  0  0  0  0  0  0
  -10.7179    0.1999    0.0000 O   0  0  0  0  0  0  0  0  0  0  0  0
  2  1  1  1  0  0  0
  2  3  1  0  0  0  0
  3  4  1  0  0  0  0
  5  4  1  1  0  0  0
  5  6  1  0  0  0  0
  6  7  1  6  0  0  0
  7  8  1  0  0  0  0
  8  9  1  0  0  0  0
  9 10  2  0  0  0  0
 10 11  1  0  0  0  0
 11 12  1  1  0  0  0
 11 13  1  0  0  0  0
 13 14  1  0  0  0  0
 14 15  1  0  0  0  0
  9 15  1  0  0  0  0
  5 15  1  0  0  0  0
 15 16  1  1  0  0  0
  6 17  1  0  0  0  0
  2 17  1  0  0  0  0
 17 18  1  1  0  0  0
 18 19  1  0  0  0  0
 19 20  1  0  0  0  0
  2 20  1  0  0  0  0
 20 21  1  1  0  0  0
 22 23  1  0  0  0  0
 23 24  1  0  0  0  0
 24 25  1  0  0  0  0
 25 26  1  0  0  0  0
 26 12  1  0  0  0  0
 26 27  1  0  0  0  0
 27 28  1  0  0  0  0
 27 29  1  0  0  0  0
 29 30  1  0  0  0  0
 29 31  1  0  0  0  0
 24 31  1  0  0  0  0
 31 32  1  0  0  0  0
M  END
> <InChI>
InChI=1S/C25H40O7/c1-24-9-7-14(31-23-22(30)21(29)20(28)18(12-26)32-23)11-13(24)3-4-15-16-5-6-19(27)25(16,2)10-8-17(15)24/h11,14-23,26-30H,3-10,12H2,1-2H3/t14-,15-,16-,17-,18?,19-,20?,21?,22?,23?,24-,25-/m0/s1

> <InChIKey>
KMXFKDKUFZYRLG-CEOQWSFNSA-N

> <SMILES>
C[C@]12CC[C@H]3[C@@H](CCC4=C[C@@H](OC5OC(CO)C(C(C5O)O)O)CC[C@@]43C)[C@@H]1CC[C@@H]2O

> <Synonyms>


> <PUBCHEM_CID>


> <Molecular_formula>
C25H40O7

> <Major_Isotope_Mass>
452.27740362

> <ALogP>
1.6259000000000012

> <Lipinski_Violations>
0

> <Insecticide_Likeness_Violations>
1

> <Post_Em_Herbicide_Likeness_Violations>
1

> <Metabolite_ID>
BTM00007

> <Reaction>
3-beta-Glycosylation of sterol

> <Reaction_ID>
BTMR0186

> <Enzyme(s)>
EC 2.4.1.173

> <Biosystem>
HUMAN

> <Precursor_ID>


> <Precursor_SMILES>
C[C@]12CC[C@H]3[C@@H](CCC4=C[C@@H](O)CC[C@@]43C)[C@@H]1CC[C@@H]2O

> <Precursor_InChI>
InChI=1S/C19H30O2/c1-18-9-7-13(20)11-12(18)3-4-14-15-5-6-17(21)19(15,2)10-8-16(14)18/h11,13-17,20-21H,3-10H2,1-2H3/t13-,14-,15-,16-,17-,18-,19-/m0/s1

> <Precursor_InChIKey>
BTTWKVFKBPAFDK-LOVVWNRFSA-N

> <Precursor_ALogP>


> <Precursor_Major_Isotope_Mass>
290.2245

$$$$
BTM00008
  CDK     09122622072D

 25 28  0  0  1  0  0  0  0  0999 V2000
    2.4272    3.1517    0.0000 C   0  0  0  0  0  0  0  0  0  0  0  0
    2.2700    1.6600    0.0000 C   0  0  2  0  0  0  0  0  0  0  0  0
    0.9700    2.4100    0.0000 C   0  0  0  0  0  0  0  0  0  0  0  0
   -0.3300    1.6600    0.0000 C   0  0  0  0  0  0  0  0  0  0  0  0
   -0.3300    0.1600    0.0000 C   0  0  1  0  0  0  0  0  0  0  0  0
    0.9700   -0.5900    0.0000 C   0  0  1  0  0  0  0  0  0  0  0  0
    0.9700   -2.0900    0.0000 C   0  0  0  0  0  0  0  0  0  0  0  0
   -0.3300   -2.8400    0.0000 C   0  0  0  0  0  0  0  0  0  0  0  0
   -1.6300   -2.0900    0.0000 C   0  0  0  0  0  0  0  0  0  0  0  0
   -2.9300   -2.8400    0.0000 C   0  0  0  0  0  0  0  0  0  0  0  0
   -4.2300   -2.0900    0.0000 C   0  0  1  0  0  0  0  0  0  0  0  0
   -5.5289   -2.8402    0.0000 O   0  0  0  0  0  0  0  0  0  0  0  0
   -4.2300   -0.5900    0.0000 C   0  0  0  0  0  0  0  0  0  0  0  0
   -2.9300    0.1600    0.0000 C   0  0  0  0  0  0  0  0  0  0  0  0
   -1.6300   -0.5900    0.0000 C   0  0  2  0  0  0  0  0  0  0  0  0
   -1.6300    0.9100    0.0000 C   0  0  0  0  0  0  0  0  0  0  0  0
    2.2700    0.1600    0.0000 C   0  0  2  0  0  0  0  0  0  0  0  0
    3.6900   -0.3000    0.0000 C   0  0  0  0  0  0  0  0  0  0  0  0
    4.5700    0.9100    0.0000 C   0  0  0  0  0  0  0  0  0  0  0  0
    3.6900    2.1200    0.0000 C   0  0  2  0  0  0  0  0  0  0  0  0
    4.1538    3.5465    0.0000 O   0  0  0  0  0  0  0  0  0  0  0  0
   -6.0783   -0.7913    0.0000 O   0  0  0  0  0  0  0  0  0  0  0  0
   -6.8281   -2.0904    0.0000 S   0  0  0  0  0  0  0  0  0  0  0  0
   -8.1272   -1.3406    0.0000 O   0  0  0  0  0  0  0  0  0  0  0  0
   -7.5779   -3.3896    0.0000 O   0  0  0  0  0  0  0  0  0  0  0  0
  2  1  1  1  0  0  0
  2  3  1  0  0  0  0
  3  4  1  0  0  0  0
  5  4  1  1  0  0  0
  5  6  1  0  0  0  0
  6  7  1  6  0  0  0
  7  8  1  0  0  0  0
  8  9  1  0  0  0  0
  9 10  2  0  0  0  0
 10 11  1  0  0  0  0
 11 12  1  1  0  0  0
 11 13  1  0  0  0  0
 13 14  1  0  0  0  0
 14 15  1  0  0  0  0
  9 15  1  0  0  0  0
  5 15  1  0  0  0  0
 15 16  1  1  0  0  0
  6 17  1  0  0  0  0
  2 17  1  0  0  0  0
 17 18  1  1  0  0  0
 18 19  1  0  0  0  0
 19 20  1  0  0  0  0
  2 20  1  0  0  0  0
 20 21  1  1  0  0  0
 22 23  1  0  0  0  0
 23 24  2  0  0  0  0
 23 25  2  0  0  0  0
 23 12  1  0  0  0  0
M  END
> <InChI>
InChI=1S/C19H30O5S/c1-18-9-7-13(24-25(21,22)23)11-12(18)3-4-14-15-5-6-17(20)19(15,2)10-8-16(14)18/h11,13-17,20H,3-10H2,1-2H3,(H,21,22,23)/t13-,14-,15-,16-,17-,18-,19-/m0/s1

> <InChIKey>
VPDALJSLCNNODJ-LOVVWNRFSA-N

> <SMILES>
C[C@]12CC[C@H]3[C@@H](CCC4=C[C@@H](OS(O)(=O)=O)CC[C@@]43C)[C@@H]1CC[C@@H]2O

> <Synonyms>


> <PUBCHEM_CID>


> <Molecular_formula>
C19H30O5S

> <Major_Isotope_Mass>
370.18139506

> <ALogP>
2.7934999999999985

> <Lipinski_Violations>
0

> <Insecticide_Likeness_Violations>
0

> <Post_Em_Herbicide_Likeness_Violations>
0

> <Metabolite_ID>
BTM00008

> <Reaction>
3-OH-Sulfation of sterol

> <Reaction_ID>
BTMR0503

> <Enzyme(s)>
EC 2.8.2.2

> <Biosystem>
HUMAN

> <Precursor_ID>


> <Precursor_SMILES>
C[C@]12CC[C@H]3[C@@H](CCC4=C[C@@H](O)CC[C@@]43C)[C@@H]1CC[C@@H]2O

> <Precursor_InChI>
InChI=1S/C19H30O2/c1-18-9-7-13(20)11-12(18)3-4-14-15-5-6-17(21)19(15,2)10-8-16(14)18/h11,13-17,20-21H,3-10H2,1-2H3/t13-,14-,15-,16-,17-,18-,19-/m0/s1

> <Precursor_InChIKey>
BTTWKVFKBPAFDK-LOVVWNRFSA-N

> <Precursor_ALogP>


> <Precursor_Major_Isotope_Mass>
290.2245

$$$$
BTM00009
  CDK     09122622072D

 22 25  0  0  1  0  0  0  0  0999 V2000
    2.1507    3.0803    0.0000 C   0  0  0  0  0  0  0  0  0  0  0  0
    1.9800    1.5900    0.0000 C   0  0  2  0  0  0  0  0  0  0  0  0
    0.7100    2.3500    0.0000 C   0  0  0  0  0  0  0  0  0  0  0  0
   -0.6200    1.5900    0.0000 C   0  0  0  0  0  0  0  0  0  0  0  0
   -0.6200    0.1200    0.0000 C   0  0  1  0  0  0  0  0  0  0  0  0
    0.7100   -0.6000    0.0000 C   0  0  1  0  0  0  0  0  0  0  0  0
    0.7100   -2.1200    0.0000 C   0  0  0  0  0  0  0  0  0  0  0  0
   -0.6200   -2.8700    0.0000 C   0  0  0  0  0  0  0  0  0  0  0  0
   -1.9200   -2.1200    0.0000 C   0  0  0  0  0  0  0  0  0  0  0  0
   -3.2100   -2.8700    0.0000 C   0  0  0  0  0  0  0  0  0  0  0  0
   -4.5200   -2.1200    0.0000 C   0  0  1  0  0  0  0  0  0  0  0  0
   -5.8177   -2.8724    0.0000 O   0  0  0  0  0  0  0  0  0  0  0  0
   -4.5200   -0.6000    0.0000 C   0  0  0  0  0  0  0  0  0  0  0  0
   -3.2100    0.1200    0.0000 C   0  0  0  0  0  0  0  0  0  0  0  0
   -1.9200   -0.6000    0.0000 C   0  0  2  0  0  0  0  0  0  0  0  0
   -1.9175    0.9000    0.0000 C   0  0  0  0  0  0  0  0  0  0  0  0
    1.9800    0.1200    0.0000 C   0  0  2  0  0  0  0  0  0  0  0  0
    3.4100   -0.3500    0.0000 C   0  0  0  0  0  0  0  0  0  0  0  0
    4.2600    0.8400    0.0000 C   0  0  0  0  0  0  0  0  0  0  0  0
    3.4100    2.0500    0.0000 C   0  0  2  0  0  0  0  0  0  0  0  0
    3.8870    3.4721    0.0000 O   0  0  0  0  0  0  0  0  0  0  0  0
    5.7600    0.8341    0.0000 O   0  0  0  0  0  0  0  0  0  0  0  0
  2  1  1  1  0  0  0
  2  3  1  0  0  0  0
  3  4  1  0  0  0  0
  5  4  1  1  0  0  0
  5  6  1  0  0  0  0
  6  7  1  6  0  0  0
  7  8  1  0  0  0  0
  8  9  1  0  0  0  0
  9 10  2  0  0  0  0
 10 11  1  0  0  0  0
 11 12  1  1  0  0  0
 11 13  1  0  0  0  0
 13 14  1  0  0  0  0
 14 15  1  0  0  0  0
  9 15  1  0  0  0  0
  5 15  1  0  0  0  0
 15 16  1  1  0  0  0
  6 17  1  0  0  0  0
  2 17  1  0  0  0  0
 17 18  1  1  0  0  0
 18 19  1  0  0  0  0
 19 20  1  0  0  0  0
  2 20  1  0  0  0  0
 20 21  1  1  0  0  0
 22 19  1  0  0  0  0
M  END
> <InChI>
InChI=1S/C19H30O3/c1-18-7-5-12(20)9-11(18)3-4-13-14(18)6-8-19(2)15(13)10-16(21)17(19)22/h9,12-17,20-22H,3-8,10H2,1-2H3/t12-,13+,14-,15-,16?,17-,18-,19-/m0/s1

> <InChIKey>
GNBIVENFRKMZSL-GABZGBSASA-N

> <SMILES>
C[C@]12CC[C@H]3[C@@H](CCC4=C[C@@H](O)CC[C@@]43C)[C@@H]1CC([C@@H]2O)O

> <Synonyms>


> <PUBCHEM_CID>


> <Molecular_formula>
C19H30O3

> <Major_Isotope_Mass>
306.21949481999997

> <ALogP>
2.4058999999999995

> <Lipinski_Violations>
0

> <Insecticide_Likeness_Violations>
1

> <Post_Em_Herbicide_Likeness_Violations>
1

> <Metabolite_ID>
BTM00009

> <Reaction>
16-Hydroxylation of sterol

> <Reaction_ID>
BTMR0407

> <Enzyme(s)>
CYP1A2
CYP2A6
CYP2B6
CYP2C8
CYP2C9
CYP2C19
CYP2D6
CYP2E1
CYP3A4

> <Biosystem>
HUMAN

> <Precursor_ID>


> <Precursor_SMILES>
C[C@]12CC[C@H]3[C@@H](CCC4=C[C@@H](O)CC[C@@]43C)[C@@H]1CC[C@@H]2O

> <Precursor_InChI>
InChI=1S/C19H30O2/c1-18-9-7-13(20)11-12(18)3-4-14-15-5-6-17(21)19(15,2)10-8-16(14)18/h11,13-17,20-21H,3-10H2,1-2H3/t13-,14-,15-,16-,17-,18-,19-/m0/s1

> <Precursor_InChIKey>
BTTWKVFKBPAFDK-LOVVWNRFSA-N

> <Precursor_ALogP>


> <Precursor_Major_Isotope_Mass>
290.2245

$$$$
BTM00010
  CDK     09122622072D

 22 25  0  0  1  0  0  0  0  0999 V2000
    2.3787    3.4316    0.0000 C   0  0  0  0  0  0  0  0  0  0  0  0
    2.2200    1.9400    0.0000 C   0  0  2  0  0  0  0  0  0  0  0  0
    0.9200    2.6900    0.0000 C   0  0  0  0  0  0  0  0  0  0  0  0
   -0.3800    1.9400    0.0000 C   0  0  0  0  0  0  0  0  0  0  0  0
   -0.3800    0.4400    0.0000 C   0  0  1  0  0  0  0  0  0  0  0  0
    0.9200   -0.3100    0.0000 C   0  0  1  0  0  0  0  0  0  0  0  0
    0.9200   -1.8100    0.0000 C   0  0  0  0  0  0  0  0  0  0  0  0
   -0.3800   -2.5600    0.0000 C   0  0  0  0  0  0  0  0  0  0  0  0
   -1.6800   -1.8100    0.0000 C   0  0  0  0  0  0  0  0  0  0  0  0
   -2.9800   -2.5600    0.0000 C   0  0  0  0  0  0  0  0  0  0  0  0
   -4.2800   -1.8100    0.0000 C   0  0  1  0  0  0  0  0  0  0  0  0
   -5.5789   -2.5602    0.0000 O   0  0  0  0  0  0  0  0  0  0  0  0
   -4.2800   -0.3100    0.0000 C   0  0  0  0  0  0  0  0  0  0  0  0
   -2.9800    0.4400    0.0000 C   0  0  0  0  0  0  0  0  0  0  0  0
   -1.6800   -0.3100    0.0000 C   0  0  2  0  0  0  0  0  0  0  0  0
   -1.6800    1.1900    0.0000 C   0  0  0  0  0  0  0  0  0  0  0  0
    2.2200    0.4400    0.0000 C   0  0  2  0  0  0  0  0  0  0  0  0
    3.6500   -0.0200    0.0000 C   0  0  0  0  0  0  0  0  0  0  0  0
    4.5300    1.1900    0.0000 C   0  0  0  0  0  0  0  0  0  0  0  0
    3.6500    2.4000    0.0000 C   0  0  2  0  0  0  0  0  0  0  0  0
    4.1153    3.8260    0.0000 O   0  0  0  0  0  0  0  0  0  0  0  0
   -5.5789    0.4402    0.0000 O   0  0  0  0  0  0  0  0  0  0  0  0
  2  1  1  1  0  0  0
  2  3  1  0  0  0  0
  3  4  1  0  0  0  0
  5  4  1  1  0  0  0
  5  6  1  0  0  0  0
  6  7  1  6  0  0  0
  7  8  1  0  0  0  0
  8  9  1  0  0  0  0
  9 10  2  0  0  0  0
 10 11  1  0  0  0  0
 11 12  1  1  0  0  0
 11 13  1  0  0  0  0
 13 14  1  0  0  0  0
 14 15  1  0  0  0  0
  9 15  1  0  0  0  0
  5 15  1  0  0  0  0
 15 16  1  1  0  0  0
  6 17  1  0  0  0  0
  2 17  1  0  0  0  0
 17 18  1  1  0  0  0
 18 19  1  0  0  0  0
 19 20  1  0  0  0  0
  2 20  1  0  0  0  0
 20 21  1  1  0  0  0
 22 13  1  0  0  0  0
M  END
> <InChI>
InChI=1S/C19H30O3/c1-18-8-7-14-12(13(18)5-6-17(18)22)4-3-11-9-15(20)16(21)10-19(11,14)2/h9,12-17,20-22H,3-8,10H2,1-2H3/t12-,13-,14-,15+,16?,17-,18-,19-/m0/s1

> <InChIKey>
DWSZBDHWVUGVKO-DIUKGONKSA-N

> <SMILES>
C[C@]12CC[C@H]3[C@@H](CCC4=C[C@@H](O)C(C[C@@]43C)O)[C@@H]1CC[C@@H]2O

> <Synonyms>


> <PUBCHEM_CID>


> <Molecular_formula>
C19H30O3

> <Major_Isotope_Mass>
306.21949481999997

> <ALogP>
2.4058999999999995

> <Lipinski_Violations>
0

> <Insecticide_Likeness_Violations>
1

> <Post_Em_Herbicide_Likeness_Violations>
1

> <Metabolite_ID>
BTM00010

> <Reaction>
2-Hydroxylation of sterol

> <Reaction_ID>
BTMR0398

> <Enzyme(s)>
CYP1A2
CYP2C19
CYP3A4

> <Biosystem>
HUMAN

> <Precursor_ID>


> <Precursor_SMILES>
C[C@]12CC[C@H]3[C@@H](CCC4=C[C@@H](O)CC[C@@]43C)[C@@H]1CC[C@@H]2O

> <Precursor_InChI>
InChI=1S/C19H30O2/c1-18-9-7-13(20)11-12(18)3-4-14-15-5-6-17(21)19(15,2)10-8-16(14)18/h11,13-17,20-21H,3-10H2,1-2H3/t13-,14-,15-,16-,17-,18-,19-/m0/s1

> <Precursor_InChIKey>
BTTWKVFKBPAFDK-LOVVWNRFSA-N

> <Precursor_ALogP>


> <Precursor_Major_Isotope_Mass>
290.2245

$$$$
BTM00011
  CDK     09122622072D

 22 25  0  0  1  0  0  0  0  0999 V2000
    2.3787    3.4316    0.0000 C   0  0  0  0  0  0  0  0  0  0  0  0
    2.2200    1.9400    0.0000 C   0  0  2  0  0  0  0  0  0  0  0  0
    0.9200    2.6900    0.0000 C   0  0  0  0  0  0  0  0  0  0  0  0
   -0.3800    1.9400    0.0000 C   0  0  0  0  0  0  0  0  0  0  0  0
   -0.3800    0.4400    0.0000 C   0  0  1  0  0  0  0  0  0  0  0  0
    0.9200   -0.3100    0.0000 C   0  0  1  0  0  0  0  0  0  0  0  0
    0.9200   -1.8100    0.0000 C   0  0  0  0  0  0  0  0  0  0  0  0
   -0.3800   -2.5600    0.0000 C   0  0  0  0  0  0  0  0  0  0  0  0
   -1.6800   -1.8100    0.0000 C   0  0  0  0  0  0  0  0  0  0  0  0
   -2.9800   -2.5600    0.0000 C   0  0  0  0  0  0  0  0  0  0  0  0
   -4.2800   -1.8100    0.0000 C   0  0  1  0  0  0  0  0  0  0  0  0
   -5.5789   -2.5602    0.0000 O   0  0  0  0  0  0  0  0  0  0  0  0
   -4.2800   -0.3100    0.0000 C   0  0  0  0  0  0  0  0  0  0  0  0
   -2.9800    0.4400    0.0000 C   0  0  0  0  0  0  0  0  0  0  0  0
   -1.6800   -0.3100    0.0000 C   0  0  2  0  0  0  0  0  0  0  0  0
   -1.6800    1.1900    0.0000 C   0  0  0  0  0  0  0  0  0  0  0  0
    2.2200    0.4400    0.0000 C   0  0  2  0  0  0  0  0  0  0  0  0
    3.6500   -0.0200    0.0000 C   0  0  0  0  0  0  0  0  0  0  0  0
    4.5300    1.1900    0.0000 C   0  0  0  0  0  0  0  0  0  0  0  0
    3.6500    2.4000    0.0000 C   0  0  2  0  0  0  0  0  0  0  0  0
    4.1153    3.8260    0.0000 O   0  0  0  0  0  0  0  0  0  0  0  0
   -2.9800   -4.0600    0.0000 O   0  0  0  0  0  0  0  0  0  0  0  0
  2  1  1  1  0  0  0
  2  3  1  0  0  0  0
  3  4  1  0  0  0  0
  5  4  1  1  0  0  0
  5  6  1  0  0  0  0
  6  7  1  6  0  0  0
  7  8  1  0  0  0  0
  8  9  1  0  0  0  0
  9 10  2  0  0  0  0
 10 11  1  0  0  0  0
 11 12  1  1  0  0  0
 11 13  1  0  0  0  0
 13 14  1  0  0  0  0
 14 15  1  0  0  0  0
  9 15  1  0  0  0  0
  5 15  1  0  0  0  0
 15 16  1  1  0  0  0
  6 17  1  0  0  0  0
  2 17  1  0  0  0  0
 17 18  1  1  0  0  0
 18 19  1  0  0  0  0
 19 20  1  0  0  0  0
  2 20  1  0  0  0  0
 20 21  1  1  0  0  0
 22 10  1  0  0  0  0
M  END
> <InChI>
InChI=1S/C19H30O3/c1-18-10-8-15(20)17(22)14(18)4-3-11-12-5-6-16(21)19(12,2)9-7-13(11)18/h11-13,15-16,20-22H,3-10H2,1-2H3/t11-,12-,13-,15-,16-,18+,19-/m0/s1

> <InChIKey>
NNNZMYLEYVRNMR-BXGHAEBMSA-N

> <SMILES>
C[C@]12CC[C@H]3[C@@H](CCC4=C([C@@H](O)CC[C@@]43C)O)[C@@H]1CC[C@@H]2O

> <Synonyms>


> <PUBCHEM_CID>


> <Molecular_formula>
C19H30O3

> <Major_Isotope_Mass>
306.21949481999997

> <ALogP>
2.8097

> <Lipinski_Violations>
0

> <Insecticide_Likeness_Violations>
1

> <Post_Em_Herbicide_Likeness_Violations>
1

> <Metabolite_ID>
BTM00011

> <Reaction>
4-Hydroxylation of sterol

> <Reaction_ID>
BTMR0400

> <Enzyme(s)>
CYP1A2
CYP3A4

> <Biosystem>
HUMAN

> <Precursor_ID>


> <Precursor_SMILES>
C[C@]12CC[C@H]3[C@@H](CCC4=C[C@@H](O)CC[C@@]43C)[C@@H]1CC[C@@H]2O

> <Precursor_InChI>
InChI=1S/C19H30O2/c1-18-9-7-13(20)11-12(18)3-4-14-15-5-6-17(21)19(15,2)10-8-16(14)18/h11,13-17,20-21H,3-10H2,1-2H3/t13-,14-,15-,16-,17-,18-,19-/m0/s1

> <Precursor_InChIKey>
BTTWKVFKBPAFDK-LOVVWNRFSA-N

> <Precursor_ALogP>


> <Precursor_Major_Isotope_Mass>
290.2245

$$$$
BTM00012
  CDK     09122622072D

 22 25  0  0  1  0  0  0  0  0999 V2000
    2.3787    3.4316    0.0000 C   0  0  0  0  0  0  0  0  0  0  0  0
    2.2200    1.9400    0.0000 C   0  0  2  0  0  0  0  0  0  0  0  0
    0.9200    2.6900    0.0000 C   0  0  0  0  0  0  0  0  0  0  0  0
   -0.3800    1.9400    0.0000 C   0  0  0  0  0  0  0  0  0  0  0  0
   -0.3800    0.4400    0.0000 C   0  0  1  0  0  0  0  0  0  0  0  0
    0.9200   -0.3100    0.0000 C   0  0  1  0  0  0  0  0  0  0  0  0
    0.9200   -1.8100    0.0000 C   0  0  0  0  0  0  0  0  0  0  0  0
   -0.3800   -2.5600    0.0000 C   0  0  0  0  0  0  0  0  0  0  0  0
   -1.6800   -1.8100    0.0000 C   0  0  0  0  0  0  0  0  0  0  0  0
   -2.9800   -2.5600    0.0000 C   0  0  0  0  0  0  0  0  0  0  0  0
   -4.2800   -1.8100    0.0000 C   0  0  1  0  0  0  0  0  0  0  0  0
   -5.5789   -2.5602    0.0000 O   0  0  0  0  0  0  0  0  0  0  0  0
   -4.2800   -0.3100    0.0000 C   0  0  0  0  0  0  0  0  0  0  0  0
   -2.9800    0.4400    0.0000 C   0  0  0  0  0  0  0  0  0  0  0  0
   -1.6800   -0.3100    0.0000 C   0  0  2  0  0  0  0  0  0  0  0  0
   -1.6800    1.1900    0.0000 C   0  0  0  0  0  0  0  0  0  0  0  0
    2.2200    0.4400    0.0000 C   0  0  2  0  0  0  0  0  0  0  0  0
    3.6500   -0.0200    0.0000 C   0  0  0  0  0  0  0  0  0  0  0  0
    4.5300    1.1900    0.0000 C   0  0  0  0  0  0  0  0  0  0  0  0
    3.6500    2.4000    0.0000 C   0  0  2  0  0  0  0  0  0  0  0  0
    4.1153    3.8260    0.0000 O   0  0  0  0  0  0  0  0  0  0  0  0
   -0.3800   -4.0600    0.0000 O   0  0  0  0  0  0  0  0  0  0  0  0
  2  1  1  1  0  0  0
  2  3  1  0  0  0  0
  3  4  1  0  0  0  0
  5  4  1  1  0  0  0
  5  6  1  0  0  0  0
  6  7  1  6  0  0  0
  7  8  1  0  0  0  0
  8  9  1  0  0  0  0
  9 10  2  0  0  0  0
 10 11  1  0  0  0  0
 11 12  1  1  0  0  0
 11 13  1  0  0  0  0
 13 14  1  0  0  0  0
 14 15  1  0  0  0  0
  9 15  1  0  0  0  0
  5 15  1  0  0  0  0
 15 16  1  1  0  0  0
  6 17  1  0  0  0  0
  2 17  1  0  0  0  0
 17 18  1  1  0  0  0
 18 19  1  0  0  0  0
 19 20  1  0  0  0  0
  2 20  1  0  0  0  0
 20 21  1  1  0  0  0
 22  8  1  0  0  0  0
M  END
> <InChI>
InChI=1S/C19H30O3/c1-18-7-5-11(20)9-15(18)16(21)10-12-13-3-4-17(22)19(13,2)8-6-14(12)18/h9,11-14,16-17,20-22H,3-8,10H2,1-2H3/t11-,12-,13-,14-,16?,17-,18+,19-/m0/s1

> <InChIKey>
VDNDIJUBNPXREI-BOWUJQNWSA-N

> <SMILES>
C[C@]12CC[C@H]3[C@@H](CC(C4=C[C@@H](O)CC[C@@]43C)O)[C@@H]1CC[C@@H]2O

> <Synonyms>


> <PUBCHEM_CID>


> <Molecular_formula>
C19H30O3

> <Major_Isotope_Mass>
306.21949481999997

> <ALogP>
2.2709

> <Lipinski_Violations>
0

> <Insecticide_Likeness_Violations>
1

> <Post_Em_Herbicide_Likeness_Violations>
1

> <Metabolite_ID>
BTM00012

> <Reaction>
6-Hydroxylation of sterol

> <Reaction_ID>
BTMR0402

> <Enzyme(s)>
CYP2A6
CYP2B6
CYP2C8
CYP2C9
CYP2C19
CYP2D6
CYP3A4

> <Biosystem>
HUMAN

> <Precursor_ID>


> <Precursor_SMILES>
C[C@]12CC[C@H]3[C@@H](CCC4=C[C@@H](O)CC[C@@]43C)[C@@H]1CC[C@@H]2O

> <Precursor_InChI>
InChI=1S/C19H30O2/c1-18-9-7-13(20)11-12(18)3-4-14-15-5-6-17(21)19(15,2)10-8-16(14)18/h11,13-17,20-21H,3-10H2,1-2H3/t13-,14-,15-,16-,17-,18-,19-/m0/s1

> <Precursor_InChIKey>
BTTWKVFKBPAFDK-LOVVWNRFSA-N

> <Precursor_ALogP>


> <Precursor_Major_Isotope_Mass>
290.2245

$$$$
BTM00013
  CDK     09122622072D

 22 25  0  0  1  0  0  0  0  0999 V2000
    2.4272    3.1517    0.0000 C   0  0  0  0  0  0  0  0  0  0  0  0
    2.2700    1.6600    0.0000 C   0  0  2  0  0  0  0  0  0  0  0  0
    0.9700    2.4100    0.0000 C   0  0  0  0  0  0  0  0  0  0  0  0
   -0.3300    1.6600    0.0000 C   0  0  0  0  0  0  0  0  0  0  0  0
   -0.3300    0.1600    0.0000 C   0  0  1  0  0  0  0  0  0  0  0  0
    0.9700   -0.5900    0.0000 C   0  0  1  0  0  0  0  0  0  0  0  0
    0.9700   -2.0900    0.0000 C   0  0  0  0  0  0  0  0  0  0  0  0
   -0.3300   -2.8400    0.0000 C   0  0  0  0  0  0  0  0  0  0  0  0
   -1.6300   -2.0900    0.0000 C   0  0  0  0  0  0  0  0  0  0  0  0
   -2.9300   -2.8400    0.0000 C   0  0  0  0  0  0  0  0  0  0  0  0
   -4.2300   -2.0900    0.0000 C   0  0  1  0  0  0  0  0  0  0  0  0
   -5.5289   -2.8402    0.0000 O   0  0  0  0  0  0  0  0  0  0  0  0
   -4.2300   -0.5900    0.0000 C   0  0  0  0  0  0  0  0  0  0  0  0
   -2.9300    0.1600    0.0000 C   0  0  0  0  0  0  0  0  0  0  0  0
   -1.6300   -0.5900    0.0000 C   0  0  2  0  0  0  0  0  0  0  0  0
   -1.6300    0.9100    0.0000 C   0  0  0  0  0  0  0  0  0  0  0  0
    2.2700    0.1600    0.0000 C   0  0  2  0  0  0  0  0  0  0  0  0
    3.6900   -0.3000    0.0000 C   0  0  0  0  0  0  0  0  0  0  0  0
    4.5700    0.9100    0.0000 C   0  0  0  0  0  0  0  0  0  0  0  0
    3.6900    2.1200    0.0000 C   0  0  2  0  0  0  0  0  0  0  0  0
    4.1538    3.5465    0.0000 O   0  0  0  0  0  0  0  0  0  0  0  0
    1.2139    4.0338    0.0000 O   0  0  0  0  0  0  0  0  0  0  0  0
  2  1  1  1  0  0  0
  2  3  1  0  0  0  0
  3  4  1  0  0  0  0
  5  4  1  1  0  0  0
  5  6  1  0  0  0  0
  6  7  1  6  0  0  0
  7  8  1  0  0  0  0
  8  9  1  0  0  0  0
  9 10  2  0  0  0  0
 10 11  1  0  0  0  0
 11 12  1  1  0  0  0
 11 13  1  0  0  0  0
 13 14  1  0  0  0  0
 14 15  1  0  0  0  0
  9 15  1  0  0  0  0
  5 15  1  0  0  0  0
 15 16  1  1  0  0  0
  6 17  1  0  0  0  0
  2 17  1  0  0  0  0
 17 18  1  1  0  0  0
 18 19  1  0  0  0  0
 19 20  1  0  0  0  0
  2 20  1  0  0  0  0
 20 21  1  1  0  0  0
 22  1  1  0  0  0  0
M  END
> <InChI>
InChI=1S/C19H30O3/c1-18-8-6-13(21)10-12(18)2-3-14-15(18)7-9-19(11-20)16(14)4-5-17(19)22/h10,13-17,20-22H,2-9,11H2,1H3/t13-,14+,15-,16-,17-,18-,19+/m0/s1

> <InChIKey>
BUKTUMBVDUZMNA-HTOQQRHYSA-N

> <SMILES>
C([C@]12CC[C@H]3[C@@H](CCC4=C[C@@H](O)CC[C@@]43C)[C@@H]1CC[C@@H]2O)O

> <Synonyms>


> <PUBCHEM_CID>


> <Molecular_formula>
C19H30O3

> <Major_Isotope_Mass>
306.21949481999997

> <ALogP>
2.282099999999998

> <Lipinski_Violations>
0

> <Insecticide_Likeness_Violations>
1

> <Post_Em_Herbicide_Likeness_Violations>
1

> <Metabolite_ID>
BTM00013

> <Reaction>
Hydroxylation of methyl carbon adjacent to aliphatic ring

> <Reaction_ID>
BTMR0054

> <Enzyme(s)>
CYP2B6
CYP2C8
CYP2C9
CYP2C19
CYP2D6
CYP3A4

> <Biosystem>
HUMAN

> <Precursor_ID>


> <Precursor_SMILES>
C[C@]12CC[C@H]3[C@@H](CCC4=C[C@@H](O)CC[C@@]43C)[C@@H]1CC[C@@H]2O

> <Precursor_InChI>
InChI=1S/C19H30O2/c1-18-9-7-13(20)11-12(18)3-4-14-15-5-6-17(21)19(15,2)10-8-16(14)18/h11,13-17,20-21H,3-10H2,1-2H3/t13-,14-,15-,16-,17-,18-,19-/m0/s1

> <Precursor_InChIKey>
BTTWKVFKBPAFDK-LOVVWNRFSA-N

> <Precursor_ALogP>


> <Precursor_Major_Isotope_Mass>
290.2245

$$$$
BTM00014
  CDK     09122622072D

 22 25  0  0  1  0  0  0  0  0999 V2000
    2.4272    3.1517    0.0000 C   0  0  0  0  0  0  0  0  0  0  0  0
    2.2700    1.6600    0.0000 C   0  0  2  0  0  0  0  0  0  0  0  0
    0.9700    2.4100    0.0000 C   0  0  0  0  0  0  0  0  0  0  0  0
   -0.3300    1.6600    0.0000 C   0  0  0  0  0  0  0  0  0  0  0  0
   -0.3300    0.1600    0.0000 C   0  0  1  0  0  0  0  0  0  0  0  0
    0.9700   -0.5900    0.0000 C   0  0  1  0  0  0  0  0  0  0  0  0
    0.9700   -2.0900    0.0000 C   0  0  0  0  0  0  0  0  0  0  0  0
   -0.3300   -2.8400    0.0000 C   0  0  0  0  0  0  0  0  0  0  0  0
   -1.6300   -2.0900    0.0000 C   0  0  0  0  0  0  0  0  0  0  0  0
   -2.9300   -2.8400    0.0000 C   0  0  0  0  0  0  0  0  0  0  0  0
   -4.2300   -2.0900    0.0000 C   0  0  1  0  0  0  0  0  0  0  0  0
   -5.5289   -2.8402    0.0000 O   0  0  0  0  0  0  0  0  0  0  0  0
   -4.2300   -0.5900    0.0000 C   0  0  0  0  0  0  0  0  0  0  0  0
   -2.9300    0.1600    0.0000 C   0  0  0  0  0  0  0  0  0  0  0  0
   -1.6300   -0.5900    0.0000 C   0  0  2  0  0  0  0  0  0  0  0  0
   -1.6300    0.9100    0.0000 C   0  0  0  0  0  0  0  0  0  0  0  0
    2.2700    0.1600    0.0000 C   0  0  2  0  0  0  0  0  0  0  0  0
    3.6900   -0.3000    0.0000 C   0  0  0  0  0  0  0  0  0  0  0  0
    4.5700    0.9100    0.0000 C   0  0  0  0  0  0  0  0  0  0  0  0
    3.6900    2.1200    0.0000 C   0  0  2  0  0  0  0  0  0  0  0  0
    4.1538    3.5465    0.0000 O   0  0  0  0  0  0  0  0  0  0  0  0
   -2.9290    1.6600    0.0000 O   0  0  0  0  0  0  0  0  0  0  0  0
  2  1  1  1  0  0  0
  2  3  1  0  0  0  0
  3  4  1  0  0  0  0
  5  4  1  1  0  0  0
  5  6  1  0  0  0  0
  6  7  1  6  0  0  0
  7  8  1  0  0  0  0
  8  9  1  0  0  0  0
  9 10  2  0  0  0  0
 10 11  1  0  0  0  0
 11 12  1  1  0  0  0
 11 13  1  0  0  0  0
 13 14  1  0  0  0  0
 14 15  1  0  0  0  0
  9 15  1  0  0  0  0
  5 15  1  0  0  0  0
 15 16  1  1  0  0  0
  6 17  1  0  0  0  0
  2 17  1  0  0  0  0
 17 18  1  1  0  0  0
 18 19  1  0  0  0  0
 19 20  1  0  0  0  0
  2 20  1  0  0  0  0
 20 21  1  1  0  0  0
 22 16  1  0  0  0  0
M  END
> <InChI>
InChI=1S/C19H30O3/c1-18-8-7-16-14(15(18)4-5-17(18)22)3-2-12-10-13(21)6-9-19(12,16)11-20/h10,13-17,20-22H,2-9,11H2,1H3/t13-,14-,15-,16-,17-,18-,19+/m0/s1

> <InChIKey>
BRDLKOCJBBBWRY-ACJJDMNUSA-N

> <SMILES>
C[C@]12CC[C@H]3[C@@H](CCC4=C[C@@H](O)CC[C@@]43CO)[C@@H]1CC[C@@H]2O

> <Synonyms>


> <PUBCHEM_CID>


> <Molecular_formula>
C19H30O3

> <Major_Isotope_Mass>
306.21949481999997

> <ALogP>
2.282099999999998

> <Lipinski_Violations>
0

> <Insecticide_Likeness_Violations>
1

> <Post_Em_Herbicide_Likeness_Violations>
1

> <Metabolite_ID>
BTM00014

> <Reaction>
Hydroxylation of methyl carbon adjacent to aliphatic ring

> <Reaction_ID>
BTMR0054

> <Enzyme(s)>
CYP2B6
CYP2C8
CYP2C9
CYP2C19
CYP2D6
CYP3A4

> <Biosystem>
HUMAN

> <Precursor_ID>


> <Precursor_SMILES>
C[C@]12CC[C@H]3[C@@H](CCC4=C[C@@H](O)CC[C@@]43C)[C@@H]1CC[C@@H]2O

> <Precursor_InChI>
InChI=1S/C19H30O2/c1-18-9-7-13(20)11-12(18)3-4-14-15-5-6-17(21)19(15,2)10-8-16(14)18/h11,13-17,20-21H,3-10H2,1-2H3/t13-,14-,15-,16-,17-,18-,19-/m0/s1

> <Precursor_InChIKey>
BTTWKVFKBPAFDK-LOVVWNRFSA-N

> <Precursor_ALogP>


> <Precursor_Major_Isotope_Mass>
290.2245

$$$$
