BTM00001
  CDK     09122622102D

 22 25  0  0  1  0  0  0  0  0999 V2000
    2.2189   -2.5602    0.0000 C   0  0  0  0  0  0  0  0  0  0  0  0
    0.9200   -1.8100    0.0000 C   0  0  2  0  0  0  0  0  0  0  0  0
   -0.3800   -2.5600    0.0000 C   0  0  0  0  0  0  0  0  0  0  0  0
   -1.6800   -1.8100    0.0000 C   0  0  0  0  0  0  0  0  0  0  0  0
   -2.9800   -2.5600    0.0000 C   0  0  0  0  0  0  0  0  0  0  0  0
   -4.2800   -1.8100    0.0000 C   0  0  0  0  0  0  0  0  0  0  0  0
   -5.5789   -2.5602    0.0000 O   0  0  0  0  0  0  0  0  0  0  0  0
   -4.2800   -0.3100    0.0000 C   0  0  0  0  0  0  0  0  0  0  0  0
   -2.9800    0.4400    0.0000 C   0  0  0  0  0  0  0  0  0  0  0  0
   -1.6800   -0.3100    0.0000 C   0  0  2  0  0  0  0  0  0  0  0  0
   -0.3800    0.4400    0.0000 C   0  0  1  0  0  0  0  0  0  0  0  0
   -0.3800    1.9400    0.0000 C   0  0  0  0  0  0  0  0  0  0  0  0
    0.9200    2.6900    0.0000 C   0  0  0  0  0  0  0  0  0  0  0  0
    2.2200    1.9400    0.0000 C   0  0  1  0  0  0  0  0  0  0  0  0
    2.3787    3.4316    0.0000 C   0  0  0  0  0  0  0  0  0  0  0  0
    2.2200    0.4400    0.0000 C   0  0  1  0  0  0  0  0  0  0  0  0
    3.6500   -0.0200    0.0000 C   0  0  0  0  0  0  0  0  0  0  0  0
    4.5300    1.1900    0.0000 C   0  0  0  0  0  0  0  0  0  0  0  0
    3.6500    2.4000    0.0000 C   0  0  1  0  0  0  0  0  0  0  0  0
    4.9495    3.1491    0.0000 C   0  0  0  0  0  0  0  0  0  0  0  0
    3.6962    0.9007    0.0000 O   0  0  0  0  0  0  0  0  0  0  0  0
    0.9200   -0.3100    0.0000 C   0  0  2  0  0  0  0  0  0  0  0  0
  2  1  1  6  0  0  0
  2  3  1  0  0  0  0
  3  4  1  0  0  0  0
  4  5  2  0  0  0  0
  5  6  1  0  0  0  0
  6  7  1  0  0  0  0
  6  8  1  0  0  0  0
  8  9  1  0  0  0  0
 10  9  1  6  0  0  0
  4 10  1  0  0  0  0
 10 11  1  0  0  0  0
 11 12  1  1  0  0  0
 12 13  1  0  0  0  0
 13 14  1  0  0  0  0
 14 15  1  1  0  0  0
 14 16  1  0  0  0  0
 16 17  1  1  0  0  0
 17 18  1  0  0  0  0
 19 18  1  6  0  0  0
 14 19  1  0  0  0  0
 19 20  1  0  0  0  0
 19 21  1  1  0  0  0
 16 22  1  0  0  0  0
 11 22  1  0  0  0  0
 22  2  1  6  0  0  0
M  END
> <InChI>
InChI=1S/C20H32O2/c1-12-10-13-11-14(21)4-5-15(13)16-6-8-19(2)17(18(12)16)7-9-20(19,3)22/h11-12,14-18,21-22H,4-10H2,1-3H3/t12-,14?,15+,16-,17+,18-,19+,20+/m1/s1

> <InChIKey>
WKJJQNBOXLGDRU-MDTHMRITSA-N

> <SMILES>
C[C@@H]1CC2=CC(O)CC[C@@H]2[C@H]3CC[C@@]4(C)[C@@H](CC[C@]4(C)O)[C@@H]31

> <Synonyms>


> <PUBCHEM_CID>


> <Molecular_formula>
C20H32O2

> <Major_Isotope_Mass>
304.240230264

> <ALogP>
3.6233999999999993

> <Lipinski_Violations>
0

> <Insecticide_Likeness_Violations>
0

> <Post_Em_Herbicide_Likeness_Violations>
0

> <Metabolite_ID>
BTM00001

> <Reaction>
Reduction of carbonyl

> <Reaction_ID>
BTMR0368

> <Enzyme(s)>
EC 1.1.1.184

> <Biosystem>
HUMAN

> <Precursor_ID>


> <Precursor_SMILES>
C[C@@H]1CC2=CC(=O)CC[C@@H]2[C@H]3CC[C@@]4(C)[C@@H](CC[C@]4(C)O)[C@@H]31

> <Precursor_InChI>
InChI=1S/C20H30O2/c1-12-10-13-11-14(21)4-5-15(13)16-6-8-19(2)17(18(12)16)7-9-20(19,3)22/h11-12,15-18,22H,4-10H2,1-3H3/t12-,15+,16-,17+,18-,19+,20+/m1/s1

> <Precursor_InChIKey>
PTQMMNYJKCSPET-OMHQDGTGSA-N

> <Precursor_ALogP>


> <Precursor_Major_Isotope_Mass>
302.2245

$$$$
BTM00002
  CDK     09122622102D

 23 26  0  0  1  0  0  0  0  0999 V2000
    2.2189   -2.5602    0.0000 C   0  0  0  0  0  0  0  0  0  0  0  0
    0.9200   -1.8100    0.0000 C   0  0  2  0  0  0  0  0  0  0  0  0
   -0.3800   -2.5600    0.0000 C   0  0  0  0  0  0  0  0  0  0  0  0
   -1.6800   -1.8100    0.0000 C   0  0  0  0  0  0  0  0  0  0  0  0
   -2.9800   -2.5600    0.0000 C   0  0  0  0  0  0  0  0  0  0  0  0
   -4.2800   -1.8100    0.0000 C   0  0  0  0  0  0  0  0  0  0  0  0
   -5.5789   -2.5602    0.0000 O   0  0  0  0  0  0  0  0  0  0  0  0
   -4.2800   -0.3100    0.0000 C   0  0  0  0  0  0  0  0  0  0  0  0
   -2.9800    0.4400    0.0000 C   0  0  0  0  0  0  0  0  0  0  0  0
   -1.6800   -0.3100    0.0000 C   0  0  2  0  0  0  0  0  0  0  0  0
   -0.3800    0.4400    0.0000 C   0  0  1  0  0  0  0  0  0  0  0  0
   -0.3800    1.9400    0.0000 C   0  0  0  0  0  0  0  0  0  0  0  0
    0.9200    2.6900    0.0000 C   0  0  0  0  0  0  0  0  0  0  0  0
    2.2200    1.9400    0.0000 C   0  0  1  0  0  0  0  0  0  0  0  0
    2.3787    3.4316    0.0000 C   0  0  0  0  0  0  0  0  0  0  0  0
    2.2200    0.4400    0.0000 C   0  0  1  0  0  0  0  0  0  0  0  0
    3.6500   -0.0200    0.0000 C   0  0  0  0  0  0  0  0  0  0  0  0
    4.5300    1.1900    0.0000 C   0  0  0  0  0  0  0  0  0  0  0  0
    3.6500    2.4000    0.0000 C   0  0  1  0  0  0  0  0  0  0  0  0
    4.9495    3.1491    0.0000 C   0  0  0  0  0  0  0  0  0  0  0  0
    3.6962    0.9007    0.0000 O   0  0  0  0  0  0  0  0  0  0  0  0
    0.9200   -0.3100    0.0000 C   0  0  2  0  0  0  0  0  0  0  0  0
   -1.6789    2.6902    0.0000 O   0  0  0  0  0  0  0  0  0  0  0  0
  2  1  1  6  0  0  0
  2  3  1  0  0  0  0
  3  4  1  0  0  0  0
  4  5  2  0  0  0  0
  5  6  1  0  0  0  0
  6  7  2  0  0  0  0
  6  8  1  0  0  0  0
  8  9  1  0  0  0  0
 10  9  1  6  0  0  0
  4 10  1  0  0  0  0
 10 11  1  0  0  0  0
 11 12  1  1  0  0  0
 12 13  1  0  0  0  0
 13 14  1  0  0  0  0
 14 15  1  1  0  0  0
 14 16  1  0  0  0  0
 16 17  1  1  0  0  0
 17 18  1  0  0  0  0
 19 18  1  6  0  0  0
 14 19  1  0  0  0  0
 19 20  1  0  0  0  0
 19 21  1  1  0  0  0
 16 22  1  0  0  0  0
 11 22  1  0  0  0  0
 22  2  1  6  0  0  0
 23 12  1  0  0  0  0
M  END
> <InChI>
InChI=1S/C20H30O3/c1-11-8-12-9-13(21)4-5-14(12)18-16(22)10-19(2)15(17(11)18)6-7-20(19,3)23/h9,11,14-18,22-23H,4-8,10H2,1-3H3/t11-,14+,15+,16?,17+,18+,19+,20+/m1/s1

> <InChIKey>
AWRIEIOLXNQOCM-MHGGWQMASA-N

> <SMILES>
C[C@@H]1CC2=CC(=O)CC[C@@H]2[C@H]3C(C[C@@]4(C)[C@@H](CC[C@]4(C)O)[C@@H]31)O

> <Synonyms>


> <PUBCHEM_CID>


> <Molecular_formula>
C20H30O3

> <Major_Isotope_Mass>
318.21949481999997

> <ALogP>
2.4144999999999985

> <Lipinski_Violations>
0

> <Insecticide_Likeness_Violations>
0

> <Post_Em_Herbicide_Likeness_Violations>
0

> <Metabolite_ID>
BTM00002

> <Reaction>
11-beta-Hydroxylation of sterol

> <Reaction_ID>
BTMR0406

> <Enzyme(s)>
EC 1.14.15.4

> <Biosystem>
HUMAN

> <Precursor_ID>


> <Precursor_SMILES>
C[C@@H]1CC2=CC(=O)CC[C@@H]2[C@H]3CC[C@@]4(C)[C@@H](CC[C@]4(C)O)[C@@H]31

> <Precursor_InChI>
InChI=1S/C20H30O2/c1-12-10-13-11-14(21)4-5-15(13)16-6-8-19(2)17(18(12)16)7-9-20(19,3)22/h11-12,15-18,22H,4-10H2,1-3H3/t12-,15+,16-,17+,18-,19+,20+/m1/s1

> <Precursor_InChIKey>
PTQMMNYJKCSPET-OMHQDGTGSA-N

> <Precursor_ALogP>


> <Precursor_Major_Isotope_Mass>
302.2245

$$$$
BTM00003
  CDK     09122622102D

 34 38  0  0  1  0  0  0  0  0999 V2000
    2.0589   -3.1826    0.0000 C   0  0  0  0  0  0  0  0  0  0  0  0
    0.7612   -2.4303    0.0000 C   0  0  2  0  0  0  0  0  0  0  0  0
   -0.5488   -3.1803    0.0000 C   0  0  0  0  0  0  0  0  0  0  0  0
   -1.8388   -2.4203    0.0000 C   0  0  0  0  0  0  0  0  0  0  0  0
   -3.1288   -3.1703    0.0000 C   0  0  0  0  0  0  0  0  0  0  0  0
   -4.4288   -2.4203    0.0000 C   0  0  0  0  0  0  0  0  0  0  0  0
   -5.7277   -3.1705    0.0000 O   0  0  0  0  0  0  0  0  0  0  0  0
   -4.4288   -0.9203    0.0000 C   0  0  0  0  0  0  0  0  0  0  0  0
   -3.1288   -0.1703    0.0000 C   0  0  0  0  0  0  0  0  0  0  0  0
   -1.8288   -0.9203    0.0000 C   0  0  2  0  0  0  0  0  0  0  0  0
   -0.5288   -0.1803    0.0000 C   0  0  1  0  0  0  0  0  0  0  0  0
   -0.5188    1.3197    0.0000 C   0  0  0  0  0  0  0  0  0  0  0  0
    0.7812    2.0597    0.0000 C   0  0  0  0  0  0  0  0  0  0  0  0
    2.0712    1.2897    0.0000 C   0  0  1  0  0  0  0  0  0  0  0  0
    2.2458    2.7795    0.0000 C   0  0  0  0  0  0  0  0  0  0  0  0
    2.0512   -0.1903    0.0000 C   0  0  1  0  0  0  0  0  0  0  0  0
    3.4712   -0.6903    0.0000 C   0  0  0  0  0  0  0  0  0  0  0  0
    4.3712    0.5197    0.0000 C   0  0  0  0  0  0  0  0  0  0  0  0
    3.5012    1.7397    0.0000 C   0  0  1  0  0  0  0  0  0  0  0  0
    4.8069    2.4780    0.0000 C   0  0  0  0  0  0  0  0  0  0  0  0
    2.7124    3.5558    0.0000 O   0  0  0  0  0  0  0  0  0  0  0  0
    0.7612   -0.9303    0.0000 C   0  0  2  0  0  0  0  0  0  0  0  0
    1.5267    6.3064    0.0000 O   0  0  0  0  0  0  0  0  0  0  0  0
    3.0163    6.1300    0.0000 C   0  0  0  0  0  0  0  0  0  0  0  0
    3.9285    7.3498    0.0000 C   0  0  0  0  0  0  0  0  0  0  0  0
    3.3403    8.7296    0.0000 O   0  0  0  0  0  0  0  0  0  0  0  0
    5.4230    7.1654    0.0000 C   0  0  0  0  0  0  0  0  0  0  0  0
    6.3232    8.3653    0.0000 O   0  0  0  0  0  0  0  0  0  0  0  0
    6.0119    5.7967    0.0000 C   0  0  0  0  0  0  0  0  0  0  0  0
    5.1141    4.5940    0.0000 O   0  0  0  0  0  0  0  0  0  0  0  0
    3.6052    4.7613    0.0000 C   0  0  0  0  0  0  0  0  0  0  0  0
    7.5016    5.6209    0.0000 C   0  0  0  0  0  0  0  0  0  0  0  0
    8.3986    6.8231    0.0000 O   0  0  0  0  0  0  0  0  0  0  0  0
    8.0941    4.2429    0.0000 O   0  0  0  0  0  0  0  0  0  0  0  0
  2  1  1  6  0  0  0
  2  3  1  0  0  0  0
  3  4  1  0  0  0  0
  4  5  2  0  0  0  0
  5  6  1  0  0  0  0
  6  7  2  0  0  0  0
  6  8  1  0  0  0  0
  8  9  1  0  0  0  0
 10  9  1  6  0  0  0
  4 10  1  0  0  0  0
 10 11  1  0  0  0  0
 11 12  1  1  0  0  0
 12 13  1  0  0  0  0
 13 14  1  0  0  0  0
 14 15  1  1  0  0  0
 14 16  1  0  0  0  0
 16 17  1  1  0  0  0
 17 18  1  0  0  0  0
 18 19  1  0  0  0  0
 14 19  1  0  0  0  0
 19 20  1  6  0  0  0
 19 21  1  1  0  0  0
 16 22  1  0  0  0  0
 11 22  1  0  0  0  0
 22  2  1  6  0  0  0
 23 24  1  0  0  0  0
 24 25  1  0  0  0  0
 25 26  1  0  0  0  0
 25 27  1  0  0  0  0
 27 28  1  0  0  0  0
 27 29  1  0  0  0  0
 29 30  1  0  0  0  0
 30 31  1  0  0  0  0
 24 31  1  0  0  0  0
 31 21  1  0  0  0  0
 29 32  1  0  0  0  0
 32 33  1  0  0  0  0
 32 34  2  0  0  0  0
M  END
> <InChI>
InChI=1S/C26H38O8/c1-12-10-13-11-14(27)4-5-15(13)16-6-8-25(2)17(18(12)16)7-9-26(25,3)34-24-21(30)19(28)20(29)22(33-24)23(31)32/h11-12,15-22,24,28-30H,4-10H2,1-3H3,(H,31,32)/t12-,15+,16-,17+,18-,19?,20?,21?,22?,24?,25+,26+/m1/s1

> <InChIKey>
QSADWNSVHCENII-KWPZBTGUSA-N

> <SMILES>
C[C@@H]1CC2=CC(=O)CC[C@@H]2[C@H]3CC[C@@]4(C)[C@@H](CC[C@]4(C)OC5OC(C(C(C5O)O)O)C(O)=O)[C@@H]31

> <Synonyms>


> <PUBCHEM_CID>


> <Molecular_formula>
C26H38O8

> <Major_Isotope_Mass>
478.256668176

> <ALogP>
2.0458999999999947

> <Lipinski_Violations>
0

> <Insecticide_Likeness_Violations>
1

> <Post_Em_Herbicide_Likeness_Violations>
1

> <Metabolite_ID>
BTM00003

> <Reaction>
17-OH-Glucuronidation of sterol

> <Reaction_ID>
BTMR0163

> <Enzyme(s)>
EC 2.4.1.17

> <Biosystem>
HUMAN

> <Precursor_ID>


> <Precursor_SMILES>
C[C@@H]1CC2=CC(=O)CC[C@@H]2[C@H]3CC[C@@]4(C)[C@@H](CC[C@]4(C)O)[C@@H]31

> <Precursor_InChI>
InChI=1S/C20H30O2/c1-12-10-13-11-14(21)4-5-15(13)16-6-8-19(2)17(18(12)16)7-9-20(19,3)22/h11-12,15-18,22H,4-10H2,1-3H3/t12-,15+,16-,17+,18-,19+,20+/m1/s1

> <Precursor_InChIKey>
PTQMMNYJKCSPET-OMHQDGTGSA-N

> <Precursor_ALogP>


> <Precursor_Major_Isotope_Mass>
302.2245

$$$$
BTM00004
  CDK     09122622102D

 23 26  0  0  1  0  0  0  0  0999 V2000
    2.2189   -2.5602    0.0000 C   0  0  0  0  0  0  0  0  0  0  0  0
    0.9200   -1.8100    0.0000 C   0  0  2  0  0  0  0  0  0  0  0  0
   -0.3800   -2.5600    0.0000 C   0  0  0  0  0  0  0  0  0  0  0  0
   -1.6800   -1.8100    0.0000 C   0  0  0  0  0  0  0  0  0  0  0  0
   -2.9800   -2.5600    0.0000 C   0  0  0  0  0  0  0  0  0  0  0  0
   -4.2800   -1.8100    0.0000 C   0  0  0  0  0  0  0  0  0  0  0  0
   -5.5789   -2.5602    0.0000 O   0  0  0  0  0  0  0  0  0  0  0  0
   -4.2800   -0.3100    0.0000 C   0  0  0  0  0  0  0  0  0  0  0  0
   -2.9800    0.4400    0.0000 C   0  0  0  0  0  0  0  0  0  0  0  0
   -1.6800   -0.3100    0.0000 C   0  0  2  0  0  0  0  0  0  0  0  0
   -0.3800    0.4400    0.0000 C   0  0  1  0  0  0  0  0  0  0  0  0
   -0.3800    1.9400    0.0000 C   0  0  0  0  0  0  0  0  0  0  0  0
    0.9200    2.6900    0.0000 C   0  0  0  0  0  0  0  0  0  0  0  0
    2.2200    1.9400    0.0000 C   0  0  1  0  0  0  0  0  0  0  0  0
    2.3787    3.4316    0.0000 C   0  0  0  0  0  0  0  0  0  0  0  0
    2.2200    0.4400    0.0000 C   0  0  1  0  0  0  0  0  0  0  0  0
    3.6500   -0.0200    0.0000 C   0  0  0  0  0  0  0  0  0  0  0  0
    4.5300    1.1900    0.0000 C   0  0  0  0  0  0  0  0  0  0  0  0
    3.6500    2.4000    0.0000 C   0  0  1  0  0  0  0  0  0  0  0  0
    4.9495    3.1491    0.0000 C   0  0  0  0  0  0  0  0  0  0  0  0
    3.6962    0.9007    0.0000 O   0  0  0  0  0  0  0  0  0  0  0  0
    0.9200   -0.3100    0.0000 C   0  0  2  0  0  0  0  0  0  0  0  0
    6.0300    1.1900    0.0000 O   0  0  0  0  0  0  0  0  0  0  0  0
  2  1  1  6  0  0  0
  2  3  1  0  0  0  0
  3  4  1  0  0  0  0
  4  5  2  0  0  0  0
  5  6  1  0  0  0  0
  6  7  2  0  0  0  0
  6  8  1  0  0  0  0
  8  9  1  0  0  0  0
 10  9  1  6  0  0  0
  4 10  1  0  0  0  0
 10 11  1  0  0  0  0
 11 12  1  1  0  0  0
 12 13  1  0  0  0  0
 13 14  1  0  0  0  0
 14 15  1  1  0  0  0
 14 16  1  0  0  0  0
 16 17  1  1  0  0  0
 17 18  1  0  0  0  0
 18 19  1  0  0  0  0
 14 19  1  0  0  0  0
 19 20  1  0  0  0  0
 19 21  1  1  0  0  0
 16 22  1  0  0  0  0
 11 22  1  0  0  0  0
 22  2  1  6  0  0  0
 23 18  1  0  0  0  0
M  END
> <InChI>
InChI=1S/C20H30O3/c1-11-8-12-9-13(21)4-5-14(12)15-6-7-19(2)16(18(11)15)10-17(22)20(19,3)23/h9,11,14-18,22-23H,4-8,10H2,1-3H3/t11-,14+,15-,16+,17?,18-,19+,20+/m1/s1

> <InChIKey>
MLYWUPZBYIJDGQ-MJLDZGGCSA-N

> <SMILES>
C[C@@H]1CC2=CC(=O)CC[C@@H]2[C@H]3CC[C@@]4(C)[C@@H](CC([C@]4(C)O)O)[C@@H]31

> <Synonyms>


> <PUBCHEM_CID>


> <Molecular_formula>
C20H30O3

> <Major_Isotope_Mass>
318.21949481999997

> <ALogP>
2.6169999999999973

> <Lipinski_Violations>
0

> <Insecticide_Likeness_Violations>
0

> <Post_Em_Herbicide_Likeness_Violations>
0

> <Metabolite_ID>
BTM00004

> <Reaction>
16-Hydroxylation of sterol

> <Reaction_ID>
BTMR0407

> <Enzyme(s)>
CYP1A2
CYP2A6
CYP2B6
CYP2C8
CYP2C9
CYP2C19
CYP2D6
CYP2E1
CYP3A4

> <Biosystem>
HUMAN

> <Precursor_ID>


> <Precursor_SMILES>
C[C@@H]1CC2=CC(=O)CC[C@@H]2[C@H]3CC[C@@]4(C)[C@@H](CC[C@]4(C)O)[C@@H]31

> <Precursor_InChI>
InChI=1S/C20H30O2/c1-12-10-13-11-14(21)4-5-15(13)16-6-8-19(2)17(18(12)16)7-9-20(19,3)22/h11-12,15-18,22H,4-10H2,1-3H3/t12-,15+,16-,17+,18-,19+,20+/m1/s1

> <Precursor_InChIKey>
PTQMMNYJKCSPET-OMHQDGTGSA-N

> <Precursor_ALogP>


> <Precursor_Major_Isotope_Mass>
302.2245

$$$$
BTM00005
  CDK     09122622102D

 23 26  0  0  1  0  0  0  0  0999 V2000
    2.2189   -2.5602    0.0000 C   0  0  0  0  0  0  0  0  0  0  0  0
    0.9200   -1.8100    0.0000 C   0  0  2  0  0  0  0  0  0  0  0  0
   -0.3800   -2.5600    0.0000 C   0  0  0  0  0  0  0  0  0  0  0  0
   -1.6800   -1.8100    0.0000 C   0  0  0  0  0  0  0  0  0  0  0  0
   -2.9800   -2.5600    0.0000 C   0  0  0  0  0  0  0  0  0  0  0  0
   -4.2800   -1.8100    0.0000 C   0  0  0  0  0  0  0  0  0  0  0  0
   -5.5789   -2.5602    0.0000 O   0  0  0  0  0  0  0  0  0  0  0  0
   -4.2800   -0.3100    0.0000 C   0  0  0  0  0  0  0  0  0  0  0  0
   -2.9800    0.4400    0.0000 C   0  0  0  0  0  0  0  0  0  0  0  0
   -1.6800   -0.3100    0.0000 C   0  0  2  0  0  0  0  0  0  0  0  0
   -0.3800    0.4400    0.0000 C   0  0  1  0  0  0  0  0  0  0  0  0
   -0.3800    1.9400    0.0000 C   0  0  0  0  0  0  0  0  0  0  0  0
    0.9200    2.6900    0.0000 C   0  0  0  0  0  0  0  0  0  0  0  0
    2.2200    1.9400    0.0000 C   0  0  1  0  0  0  0  0  0  0  0  0
    2.3787    3.4316    0.0000 C   0  0  0  0  0  0  0  0  0  0  0  0
    2.2200    0.4400    0.0000 C   0  0  1  0  0  0  0  0  0  0  0  0
    3.6500   -0.0200    0.0000 C   0  0  0  0  0  0  0  0  0  0  0  0
    4.5300    1.1900    0.0000 C   0  0  0  0  0  0  0  0  0  0  0  0
    3.6500    2.4000    0.0000 C   0  0  1  0  0  0  0  0  0  0  0  0
    4.9495    3.1491    0.0000 C   0  0  0  0  0  0  0  0  0  0  0  0
    3.6962    0.9007    0.0000 O   0  0  0  0  0  0  0  0  0  0  0  0
    0.9200   -0.3100    0.0000 C   0  0  2  0  0  0  0  0  0  0  0  0
   -5.5789    0.4402    0.0000 O   0  0  0  0  0  0  0  0  0  0  0  0
  2  1  1  6  0  0  0
  2  3  1  0  0  0  0
  3  4  1  0  0  0  0
  4  5  2  0  0  0  0
  5  6  1  0  0  0  0
  6  7  2  0  0  0  0
  6  8  1  0  0  0  0
  8  9  1  0  0  0  0
 10  9  1  6  0  0  0
  4 10  1  0  0  0  0
 10 11  1  0  0  0  0
 11 12  1  1  0  0  0
 12 13  1  0  0  0  0
 13 14  1  0  0  0  0
 14 15  1  1  0  0  0
 14 16  1  0  0  0  0
 16 17  1  1  0  0  0
 17 18  1  0  0  0  0
 19 18  1  6  0  0  0
 14 19  1  0  0  0  0
 19 20  1  0  0  0  0
 19 21  1  1  0  0  0
 16 22  1  0  0  0  0
 11 22  1  0  0  0  0
 22  2  1  6  0  0  0
 23  8  1  0  0  0  0
M  END
> <InChI>
InChI=1S/C20H30O3/c1-11-8-12-9-16(21)17(22)10-14(12)13-4-6-19(2)15(18(11)13)5-7-20(19,3)23/h9,11,13-15,17-18,22-23H,4-8,10H2,1-3H3/t11-,13-,14+,15+,17?,18-,19+,20+/m1/s1

> <InChIKey>
UIXPOPRVVXEIFE-FFZYZSMSSA-N

> <SMILES>
C[C@@H]1CC2=CC(=O)C(C[C@@H]2[C@H]3CC[C@@]4(C)[C@@H](CC[C@]4(C)O)[C@@H]31)O

> <Synonyms>


> <PUBCHEM_CID>


> <Molecular_formula>
C20H30O3

> <Major_Isotope_Mass>
318.21949481999997

> <ALogP>
2.9033999999999978

> <Lipinski_Violations>
0

> <Insecticide_Likeness_Violations>
0

> <Post_Em_Herbicide_Likeness_Violations>
0

> <Metabolite_ID>
BTM00005

> <Reaction>
2-Hydroxylation of sterol

> <Reaction_ID>
BTMR0398

> <Enzyme(s)>
CYP1A2
CYP2C19
CYP3A4

> <Biosystem>
HUMAN

> <Precursor_ID>


> <Precursor_SMILES>
C[C@@H]1CC2=CC(=O)CC[C@@H]2[C@H]3CC[C@@]4(C)[C@@H](CC[C@]4(C)O)[C@@H]31

> <Precursor_InChI>
InChI=1S/C20H30O2/c1-12-10-13-11-14(21)4-5-15(13)16-6-8-19(2)17(18(12)16)7-9-20(19,3)22/h11-12,15-18,22H,4-10H2,1-3H3/t12-,15+,16-,17+,18-,19+,20+/m1/s1

> <Precursor_InChIKey>
PTQMMNYJKCSPET-OMHQDGTGSA-N

> <Precursor_ALogP>


> <Precursor_Major_Isotope_Mass>
302.2245

$$$$
BTM00006
  CDK     09122622102D

 23 26  0  0  1  0  0  0  0  0999 V2000
    2.2189   -2.5602    0.0000 C   0  0  0  0  0  0  0  0  0  0  0  0
    0.9200   -1.8100    0.0000 C   0  0  2  0  0  0  0  0  0  0  0  0
   -0.3800   -2.5600    0.0000 C   0  0  0  0  0  0  0  0  0  0  0  0
   -1.6800   -1.8100    0.0000 C   0  0  0  0  0  0  0  0  0  0  0  0
   -2.9800   -2.5600    0.0000 C   0  0  0  0  0  0  0  0  0  0  0  0
   -4.2800   -1.8100    0.0000 C   0  0  0  0  0  0  0  0  0  0  0  0
   -5.5789   -2.5602    0.0000 O   0  0  0  0  0  0  0  0  0  0  0  0
   -4.2800   -0.3100    0.0000 C   0  0  0  0  0  0  0  0  0  0  0  0
   -2.9800    0.4400    0.0000 C   0  0  0  0  0  0  0  0  0  0  0  0
   -1.6800   -0.3100    0.0000 C   0  0  2  0  0  0  0  0  0  0  0  0
   -0.3800    0.4400    0.0000 C   0  0  1  0  0  0  0  0  0  0  0  0
   -0.3800    1.9400    0.0000 C   0  0  0  0  0  0  0  0  0  0  0  0
    0.9200    2.6900    0.0000 C   0  0  0  0  0  0  0  0  0  0  0  0
    2.2200    1.9400    0.0000 C   0  0  1  0  0  0  0  0  0  0  0  0
    2.3787    3.4316    0.0000 C   0  0  0  0  0  0  0  0  0  0  0  0
    2.2200    0.4400    0.0000 C   0  0  1  0  0  0  0  0  0  0  0  0
    3.6500   -0.0200    0.0000 C   0  0  0  0  0  0  0  0  0  0  0  0
    4.5300    1.1900    0.0000 C   0  0  0  0  0  0  0  0  0  0  0  0
    3.6500    2.4000    0.0000 C   0  0  1  0  0  0  0  0  0  0  0  0
    4.9495    3.1491    0.0000 C   0  0  0  0  0  0  0  0  0  0  0  0
    3.6962    0.9007    0.0000 O   0  0  0  0  0  0  0  0  0  0  0  0
    0.9200   -0.3100    0.0000 C   0  0  2  0  0  0  0  0  0  0  0  0
   -2.9800   -4.0600    0.0000 O   0  0  0  0  0  0  0  0  0  0  0  0
  2  1  1  6  0  0  0
  2  3  1  0  0  0  0
  3  4  1  0  0  0  0
  4  5  2  0  0  0  0
  5  6  1  0  0  0  0
  6  7  2  0  0  0  0
  6  8  1  0  0  0  0
  8  9  1  0  0  0  0
 10  9  1  6  0  0  0
  4 10  1  0  0  0  0
 10 11  1  0  0  0  0
 11 12  1  1  0  0  0
 12 13  1  0  0  0  0
 13 14  1  0  0  0  0
 14 15  1  1  0  0  0
 14 16  1  0  0  0  0
 16 17  1  1  0  0  0
 17 18  1  0  0  0  0
 19 18  1  6  0  0  0
 14 19  1  0  0  0  0
 19 20  1  0  0  0  0
 19 21  1  1  0  0  0
 16 22  1  0  0  0  0
 11 22  1  0  0  0  0
 22  2  1  6  0  0  0
 23  5  1  0  0  0  0
M  END
> <InChI>
InChI=1S/C20H30O3/c1-11-10-14-12(4-5-16(21)18(14)22)13-6-8-19(2)15(17(11)13)7-9-20(19,3)23/h11-13,15,17,22-23H,4-10H2,1-3H3/t11-,12-,13-,15+,17-,19+,20+/m1/s1

> <InChIKey>
SSPZJEMFTLLFHX-GPKADXPRSA-N

> <SMILES>
C[C@@H]1CC2=C(C(=O)CC[C@@H]2[C@H]3CC[C@@]4(C)[C@@H](CC[C@]4(C)O)[C@@H]31)O

> <Synonyms>


> <PUBCHEM_CID>


> <Molecular_formula>
C20H30O3

> <Major_Isotope_Mass>
318.21949481999997

> <ALogP>
3.0207999999999995

> <Lipinski_Violations>
0

> <Insecticide_Likeness_Violations>
0

> <Post_Em_Herbicide_Likeness_Violations>
0

> <Metabolite_ID>
BTM00006

> <Reaction>
4-Hydroxylation of sterol

> <Reaction_ID>
BTMR0400

> <Enzyme(s)>
CYP1A2
CYP3A4

> <Biosystem>
HUMAN

> <Precursor_ID>


> <Precursor_SMILES>
C[C@@H]1CC2=CC(=O)CC[C@@H]2[C@H]3CC[C@@]4(C)[C@@H](CC[C@]4(C)O)[C@@H]31

> <Precursor_InChI>
InChI=1S/C20H30O2/c1-12-10-13-11-14(21)4-5-15(13)16-6-8-19(2)17(18(12)16)7-9-20(19,3)22/h11-12,15-18,22H,4-10H2,1-3H3/t12-,15+,16-,17+,18-,19+,20+/m1/s1

> <Precursor_InChIKey>
PTQMMNYJKCSPET-OMHQDGTGSA-N

> <Precursor_ALogP>


> <Precursor_Major_Isotope_Mass>
302.2245

$$$$
BTM00007
  CDK     09122622102D

 23 26  0  0  1  0  0  0  0  0999 V2000
    2.2189   -2.5602    0.0000 C   0  0  0  0  0  0  0  0  0  0  0  0
    0.9200   -1.8100    0.0000 C   0  0  2  0  0  0  0  0  0  0  0  0
   -0.3800   -2.5600    0.0000 C   0  0  0  0  0  0  0  0  0  0  0  0
   -1.6800   -1.8100    0.0000 C   0  0  0  0  0  0  0  0  0  0  0  0
   -2.9800   -2.5600    0.0000 C   0  0  0  0  0  0  0  0  0  0  0  0
   -4.2800   -1.8100    0.0000 C   0  0  0  0  0  0  0  0  0  0  0  0
   -5.5789   -2.5602    0.0000 O   0  0  0  0  0  0  0  0  0  0  0  0
   -4.2800   -0.3100    0.0000 C   0  0  0  0  0  0  0  0  0  0  0  0
   -2.9800    0.4400    0.0000 C   0  0  0  0  0  0  0  0  0  0  0  0
   -1.6800   -0.3100    0.0000 C   0  0  2  0  0  0  0  0  0  0  0  0
   -0.3800    0.4400    0.0000 C   0  0  1  0  0  0  0  0  0  0  0  0
   -0.3800    1.9400    0.0000 C   0  0  0  0  0  0  0  0  0  0  0  0
    0.9200    2.6900    0.0000 C   0  0  0  0  0  0  0  0  0  0  0  0
    2.2200    1.9400    0.0000 C   0  0  1  0  0  0  0  0  0  0  0  0
    2.3787    3.4316    0.0000 C   0  0  0  0  0  0  0  0  0  0  0  0
    2.2200    0.4400    0.0000 C   0  0  1  0  0  0  0  0  0  0  0  0
    3.6500   -0.0200    0.0000 C   0  0  0  0  0  0  0  0  0  0  0  0
    4.5300    1.1900    0.0000 C   0  0  0  0  0  0  0  0  0  0  0  0
    3.6500    2.4000    0.0000 C   0  0  1  0  0  0  0  0  0  0  0  0
    4.9495    3.1491    0.0000 C   0  0  0  0  0  0  0  0  0  0  0  0
    3.6962    0.9007    0.0000 O   0  0  0  0  0  0  0  0  0  0  0  0
    0.9200   -0.3100    0.0000 C   0  0  2  0  0  0  0  0  0  0  0  0
   -0.3800   -4.0600    0.0000 O   0  0  0  0  0  0  0  0  0  0  0  0
  2  1  1  6  0  0  0
  2  3  1  0  0  0  0
  3  4  1  0  0  0  0
  4  5  2  0  0  0  0
  5  6  1  0  0  0  0
  6  7  2  0  0  0  0
  6  8  1  0  0  0  0
  8  9  1  0  0  0  0
 10  9  1  6  0  0  0
  4 10  1  0  0  0  0
 10 11  1  0  0  0  0
 11 12  1  1  0  0  0
 12 13  1  0  0  0  0
 13 14  1  0  0  0  0
 14 15  1  1  0  0  0
 14 16  1  0  0  0  0
 16 17  1  1  0  0  0
 17 18  1  0  0  0  0
 19 18  1  6  0  0  0
 14 19  1  0  0  0  0
 19 20  1  0  0  0  0
 19 21  1  1  0  0  0
 16 22  1  0  0  0  0
 11 22  1  0  0  0  0
 22  2  1  6  0  0  0
 23  3  1  0  0  0  0
M  END
> <InChI>
InChI=1S/C20H30O3/c1-11-17-14(13-5-4-12(21)10-15(13)18(11)22)6-8-19(2)16(17)7-9-20(19,3)23/h10-11,13-14,16-18,22-23H,4-9H2,1-3H3/t11-,13+,14+,16-,17+,18?,19-,20-/m0/s1

> <InChIKey>
AZALKPZCFLZZHM-OMINNETNSA-N

> <SMILES>
C[C@@H]1C(C2=CC(=O)CC[C@@H]2[C@H]3CC[C@@]4(C)[C@@H](CC[C@]4(C)O)[C@@H]31)O

> <Synonyms>


> <PUBCHEM_CID>


> <Molecular_formula>
C20H30O3

> <Major_Isotope_Mass>
318.21949482

> <ALogP>
2.5494999999999983

> <Lipinski_Violations>
0

> <Insecticide_Likeness_Violations>
0

> <Post_Em_Herbicide_Likeness_Violations>
0

> <Metabolite_ID>
BTM00007

> <Reaction>
6-Hydroxylation of sterol

> <Reaction_ID>
BTMR0402

> <Enzyme(s)>
CYP2A6
CYP2B6
CYP2C8
CYP2C9
CYP2C19
CYP2D6
CYP3A4

> <Biosystem>
HUMAN

> <Precursor_ID>


> <Precursor_SMILES>
C[C@@H]1CC2=CC(=O)CC[C@@H]2[C@H]3CC[C@@]4(C)[C@@H](CC[C@]4(C)O)[C@@H]31

> <Precursor_InChI>
InChI=1S/C20H30O2/c1-12-10-13-11-14(21)4-5-15(13)16-6-8-19(2)17(18(12)16)7-9-20(19,3)22/h11-12,15-18,22H,4-10H2,1-3H3/t12-,15+,16-,17+,18-,19+,20+/m1/s1

> <Precursor_InChIKey>
PTQMMNYJKCSPET-OMHQDGTGSA-N

> <Precursor_ALogP>


> <Precursor_Major_Isotope_Mass>
302.2245

$$$$
BTM00008
  CDK     09122622102D

 23 26  0  0  1  0  0  0  0  0999 V2000
    1.4327   -3.2196    0.0000 C   0  0  0  0  0  0  0  0  0  0  0  0
    0.9200   -1.8100    0.0000 C   0  0  0  0  0  0  0  0  0  0  0  0
   -0.3800   -2.5600    0.0000 C   0  0  0  0  0  0  0  0  0  0  0  0
   -1.6800   -1.8100    0.0000 C   0  0  0  0  0  0  0  0  0  0  0  0
   -2.9800   -2.5600    0.0000 C   0  0  0  0  0  0  0  0  0  0  0  0
   -4.2800   -1.8100    0.0000 C   0  0  0  0  0  0  0  0  0  0  0  0
   -5.5789   -2.5602    0.0000 O   0  0  0  0  0  0  0  0  0  0  0  0
   -4.2800   -0.3100    0.0000 C   0  0  0  0  0  0  0  0  0  0  0  0
   -2.9800    0.4400    0.0000 C   0  0  0  0  0  0  0  0  0  0  0  0
   -1.6800   -0.3100    0.0000 C   0  0  2  0  0  0  0  0  0  0  0  0
   -0.3800    0.4400    0.0000 C   0  0  1  0  0  0  0  0  0  0  0  0
   -0.3800    1.9400    0.0000 C   0  0  0  0  0  0  0  0  0  0  0  0
    0.9200    2.6900    0.0000 C   0  0  0  0  0  0  0  0  0  0  0  0
    2.2200    1.9400    0.0000 C   0  0  1  0  0  0  0  0  0  0  0  0
    2.3787    3.4316    0.0000 C   0  0  0  0  0  0  0  0  0  0  0  0
    2.2200    0.4400    0.0000 C   0  0  1  0  0  0  0  0  0  0  0  0
    3.6500   -0.0200    0.0000 C   0  0  0  0  0  0  0  0  0  0  0  0
    4.5300    1.1900    0.0000 C   0  0  0  0  0  0  0  0  0  0  0  0
    3.6500    2.4000    0.0000 C   0  0  1  0  0  0  0  0  0  0  0  0
    4.9495    3.1491    0.0000 C   0  0  0  0  0  0  0  0  0  0  0  0
    3.6962    0.9007    0.0000 O   0  0  0  0  0  0  0  0  0  0  0  0
    0.9200   -0.3100    0.0000 C   0  0  2  0  0  0  0  0  0  0  0  0
    2.3972   -1.5497    0.0000 O   0  0  0  0  0  0  0  0  0  0  0  0
  2  1  1  0  0  0  0
  2  3  1  0  0  0  0
  3  4  1  0  0  0  0
  4  5  2  0  0  0  0
  5  6  1  0  0  0  0
  6  7  2  0  0  0  0
  6  8  1  0  0  0  0
  8  9  1  0  0  0  0
 10  9  1  6  0  0  0
  4 10  1  0  0  0  0
 10 11  1  0  0  0  0
 11 12  1  1  0  0  0
 12 13  1  0  0  0  0
 13 14  1  0  0  0  0
 14 15  1  1  0  0  0
 14 16  1  0  0  0  0
 16 17  1  1  0  0  0
 17 18  1  0  0  0  0
 19 18  1  6  0  0  0
 14 19  1  0  0  0  0
 19 20  1  0  0  0  0
 19 21  1  1  0  0  0
 16 22  1  0  0  0  0
 11 22  1  0  0  0  0
 22  2  1  6  0  0  0
  2 23  1  0  0  0  0
M  END
> <InChI>
InChI=1S/C20H30O3/c1-18-8-6-15-14-5-4-13(21)10-12(14)11-19(2,22)17(15)16(18)7-9-20(18,3)23/h10,14-17,22-23H,4-9,11H2,1-3H3/t14-,15+,16-,17+,18-,19?,20-/m0/s1

> <InChIKey>
XIFJCEOWIGLYGL-XAVMRJJFSA-N

> <SMILES>
CC1(CC2=CC(=O)CC[C@@H]2[C@H]3CC[C@@]4(C)[C@@H](CC[C@]4(C)O)[C@@H]31)O

> <Synonyms>


> <PUBCHEM_CID>


> <Molecular_formula>
C20H30O3

> <Major_Isotope_Mass>
318.21949481999997

> <ALogP>
2.3676999999999966

> <Lipinski_Violations>
0

> <Insecticide_Likeness_Violations>
0

> <Post_Em_Herbicide_Likeness_Violations>
0

> <Metabolite_ID>
BTM00008

> <Reaction>
Hydroxylation of penultimate aliphatic tertiary carbon

> <Reaction_ID>
BTMR1075

> <Enzyme(s)>
CYP2A6
CYP2B6
CYP2C8
CYP2C9
CYP2D6
CYP3A4

> <Biosystem>
HUMAN

> <Precursor_ID>


> <Precursor_SMILES>
C[C@@H]1CC2=CC(=O)CC[C@@H]2[C@H]3CC[C@@]4(C)[C@@H](CC[C@]4(C)O)[C@@H]31

> <Precursor_InChI>
InChI=1S/C20H30O2/c1-12-10-13-11-14(21)4-5-15(13)16-6-8-19(2)17(18(12)16)7-9-20(19,3)22/h11-12,15-18,22H,4-10H2,1-3H3/t12-,15+,16-,17+,18-,19+,20+/m1/s1

> <Precursor_InChIKey>
PTQMMNYJKCSPET-OMHQDGTGSA-N

> <Precursor_ALogP>


> <Precursor_Major_Isotope_Mass>
302.2245

$$$$
BTM00009
  CDK     09122622102D

 23 26  0  0  1  0  0  0  0  0999 V2000
    1.8677   -2.7424    0.0000 C   0  0  0  0  0  0  0  0  0  0  0  0
    0.5700   -1.9900    0.0000 C   0  0  2  0  0  0  0  0  0  0  0  0
   -0.7400   -2.7400    0.0000 C   0  0  0  0  0  0  0  0  0  0  0  0
   -2.0300   -1.9800    0.0000 C   0  0  0  0  0  0  0  0  0  0  0  0
   -3.3200   -2.7300    0.0000 C   0  0  0  0  0  0  0  0  0  0  0  0
   -4.6200   -1.9800    0.0000 C   0  0  0  0  0  0  0  0  0  0  0  0
   -5.9189   -2.7302    0.0000 O   0  0  0  0  0  0  0  0  0  0  0  0
   -4.6200   -0.4800    0.0000 C   0  0  0  0  0  0  0  0  0  0  0  0
   -3.3200    0.2700    0.0000 C   0  0  0  0  0  0  0  0  0  0  0  0
   -2.0200   -0.4800    0.0000 C   0  0  2  0  0  0  0  0  0  0  0  0
   -0.7200    0.2600    0.0000 C   0  0  1  0  0  0  0  0  0  0  0  0
   -0.7100    1.7600    0.0000 C   0  0  0  0  0  0  0  0  0  0  0  0
    0.5900    2.5000    0.0000 C   0  0  0  0  0  0  0  0  0  0  0  0
    1.8800    1.7300    0.0000 C   0  0  1  0  0  0  0  0  0  0  0  0
    2.0546    3.2198    0.0000 C   0  0  0  0  0  0  0  0  0  0  0  0
    1.8600    0.2500    0.0000 C   0  0  1  0  0  0  0  0  0  0  0  0
    3.2800   -0.2500    0.0000 C   0  0  0  0  0  0  0  0  0  0  0  0
    4.1800    0.9600    0.0000 C   0  0  0  0  0  0  0  0  0  0  0  0
    3.3100    2.1800    0.0000 C   0  0  1  0  0  0  0  0  0  0  0  0
    4.6157    2.9183    0.0000 C   0  0  0  0  0  0  0  0  0  0  0  0
    3.3482    0.6805    0.0000 O   0  0  0  0  0  0  0  0  0  0  0  0
    0.5700   -0.4900    0.0000 C   0  0  2  0  0  0  0  0  0  0  0  0
    1.8650   -4.2424    0.0000 O   0  0  0  0  0  0  0  0  0  0  0  0
  2  1  1  6  0  0  0
  2  3  1  0  0  0  0
  3  4  1  0  0  0  0
  4  5  2  0  0  0  0
  5  6  1  0  0  0  0
  6  7  2  0  0  0  0
  6  8  1  0  0  0  0
  8  9  1  0  0  0  0
 10  9  1  6  0  0  0
  4 10  1  0  0  0  0
 10 11  1  0  0  0  0
 11 12  1  1  0  0  0
 12 13  1  0  0  0  0
 13 14  1  0  0  0  0
 14 15  1  1  0  0  0
 14 16  1  0  0  0  0
 16 17  1  1  0  0  0
 17 18  1  0  0  0  0
 19 18  1  6  0  0  0
 14 19  1  0  0  0  0
 19 20  1  0  0  0  0
 19 21  1  1  0  0  0
 16 22  1  0  0  0  0
 11 22  1  0  0  0  0
 22  2  1  6  0  0  0
 23  1  1  0  0  0  0
M  END
> <InChI>
InChI=1S/C20H30O3/c1-19-7-5-16-15-4-3-14(22)10-12(15)9-13(11-21)18(16)17(19)6-8-20(19,2)23/h10,13,15-18,21,23H,3-9,11H2,1-2H3/t13-,15-,16+,17-,18+,19-,20-/m0/s1

> <InChIKey>
BWAWQOKNFDBGGW-AAUPXZFASA-N

> <SMILES>
C([C@@H]1CC2=CC(=O)CC[C@@H]2[C@H]3CC[C@@]4(C)[C@@H](CC[C@]4(C)O)[C@@H]31)O

> <Synonyms>


> <PUBCHEM_CID>


> <Molecular_formula>
C20H30O3

> <Major_Isotope_Mass>
318.21949481999997

> <ALogP>
2.425699999999998

> <Lipinski_Violations>
0

> <Insecticide_Likeness_Violations>
0

> <Post_Em_Herbicide_Likeness_Violations>
0

> <Metabolite_ID>
BTM00009

> <Reaction>
Hydroxylation of methyl carbon adjacent to aliphatic ring

> <Reaction_ID>
BTMR0054

> <Enzyme(s)>
CYP2B6
CYP2C8
CYP2C9
CYP2C19
CYP2D6
CYP3A4

> <Biosystem>
HUMAN

> <Precursor_ID>


> <Precursor_SMILES>
C[C@@H]1CC2=CC(=O)CC[C@@H]2[C@H]3CC[C@@]4(C)[C@@H](CC[C@]4(C)O)[C@@H]31

> <Precursor_InChI>
InChI=1S/C20H30O2/c1-12-10-13-11-14(21)4-5-15(13)16-6-8-19(2)17(18(12)16)7-9-20(19,3)22/h11-12,15-18,22H,4-10H2,1-3H3/t12-,15+,16-,17+,18-,19+,20+/m1/s1

> <Precursor_InChIKey>
PTQMMNYJKCSPET-OMHQDGTGSA-N

> <Precursor_ALogP>


> <Precursor_Major_Isotope_Mass>
302.2245

$$$$
BTM00010
  CDK     09122622102D

 23 26  0  0  1  0  0  0  0  0999 V2000
    1.8677   -2.7424    0.0000 C   0  0  0  0  0  0  0  0  0  0  0  0
    0.5700   -1.9900    0.0000 C   0  0  2  0  0  0  0  0  0  0  0  0
   -0.7400   -2.7400    0.0000 C   0  0  0  0  0  0  0  0  0  0  0  0
   -2.0300   -1.9800    0.0000 C   0  0  0  0  0  0  0  0  0  0  0  0
   -3.3200   -2.7300    0.0000 C   0  0  0  0  0  0  0  0  0  0  0  0
   -4.6200   -1.9800    0.0000 C   0  0  0  0  0  0  0  0  0  0  0  0
   -5.9189   -2.7302    0.0000 O   0  0  0  0  0  0  0  0  0  0  0  0
   -4.6200   -0.4800    0.0000 C   0  0  0  0  0  0  0  0  0  0  0  0
   -3.3200    0.2700    0.0000 C   0  0  0  0  0  0  0  0  0  0  0  0
   -2.0200   -0.4800    0.0000 C   0  0  2  0  0  0  0  0  0  0  0  0
   -0.7200    0.2600    0.0000 C   0  0  1  0  0  0  0  0  0  0  0  0
   -0.7100    1.7600    0.0000 C   0  0  0  0  0  0  0  0  0  0  0  0
    0.5900    2.5000    0.0000 C   0  0  0  0  0  0  0  0  0  0  0  0
    1.8800    1.7300    0.0000 C   0  0  1  0  0  0  0  0  0  0  0  0
    2.0546    3.2198    0.0000 C   0  0  0  0  0  0  0  0  0  0  0  0
    1.8600    0.2500    0.0000 C   0  0  1  0  0  0  0  0  0  0  0  0
    3.2800   -0.2500    0.0000 C   0  0  0  0  0  0  0  0  0  0  0  0
    4.1800    0.9600    0.0000 C   0  0  0  0  0  0  0  0  0  0  0  0
    3.3100    2.1800    0.0000 C   0  0  1  0  0  0  0  0  0  0  0  0
    4.6157    2.9183    0.0000 C   0  0  0  0  0  0  0  0  0  0  0  0
    3.3482    0.6805    0.0000 O   0  0  0  0  0  0  0  0  0  0  0  0
    0.5700   -0.4900    0.0000 C   0  0  2  0  0  0  0  0  0  0  0  0
    4.6292    4.4182    0.0000 O   0  0  0  0  0  0  0  0  0  0  0  0
  2  1  1  6  0  0  0
  2  3  1  0  0  0  0
  3  4  1  0  0  0  0
  4  5  2  0  0  0  0
  5  6  1  0  0  0  0
  6  7  2  0  0  0  0
  6  8  1  0  0  0  0
  8  9  1  0  0  0  0
 10  9  1  6  0  0  0
  4 10  1  0  0  0  0
 10 11  1  0  0  0  0
 11 12  1  1  0  0  0
 12 13  1  0  0  0  0
 13 14  1  0  0  0  0
 14 15  1  1  0  0  0
 14 16  1  0  0  0  0
 16 17  1  1  0  0  0
 17 18  1  0  0  0  0
 19 18  1  6  0  0  0
 14 19  1  0  0  0  0
 19 20  1  0  0  0  0
 19 21  1  1  0  0  0
 16 22  1  0  0  0  0
 11 22  1  0  0  0  0
 22  2  1  6  0  0  0
 23 20  1  0  0  0  0
M  END
> <InChI>
InChI=1S/C20H30O3/c1-12-9-13-10-14(22)3-4-15(13)16-5-7-19(2)17(18(12)16)6-8-20(19,23)11-21/h10,12,15-18,21,23H,3-9,11H2,1-2H3/t12-,15+,16-,17+,18-,19+,20-/m1/s1

> <InChIKey>
NOENEZXVLVHQBV-FLGGWWISSA-N

> <SMILES>
C[C@@H]1CC2=CC(=O)CC[C@@H]2[C@H]3CC[C@@]4(C)[C@@H](CC[C@]4(CO)O)[C@@H]31

> <Synonyms>


> <PUBCHEM_CID>


> <Molecular_formula>
C20H30O3

> <Major_Isotope_Mass>
318.21949481999997

> <ALogP>
2.6956999999999987

> <Lipinski_Violations>
0

> <Insecticide_Likeness_Violations>
0

> <Post_Em_Herbicide_Likeness_Violations>
0

> <Metabolite_ID>
BTM00010

> <Reaction>
Hydroxylation of methyl carbon adjacent to aliphatic ring

> <Reaction_ID>
BTMR0054

> <Enzyme(s)>
CYP2B6
CYP2C8
CYP2C9
CYP2C19
CYP2D6
CYP3A4

> <Biosystem>
HUMAN

> <Precursor_ID>


> <Precursor_SMILES>
C[C@@H]1CC2=CC(=O)CC[C@@H]2[C@H]3CC[C@@]4(C)[C@@H](CC[C@]4(C)O)[C@@H]31

> <Precursor_InChI>
InChI=1S/C20H30O2/c1-12-10-13-11-14(21)4-5-15(13)16-6-8-19(2)17(18(12)16)7-9-20(19,3)22/h11-12,15-18,22H,4-10H2,1-3H3/t12-,15+,16-,17+,18-,19+,20+/m1/s1

> <Precursor_InChIKey>
PTQMMNYJKCSPET-OMHQDGTGSA-N

> <Precursor_ALogP>


> <Precursor_Major_Isotope_Mass>
302.2245

$$$$
BTM00011
  CDK     09122622102D

 23 26  0  0  1  0  0  0  0  0999 V2000
    1.8677   -2.7424    0.0000 C   0  0  0  0  0  0  0  0  0  0  0  0
    0.5700   -1.9900    0.0000 C   0  0  2  0  0  0  0  0  0  0  0  0
   -0.7400   -2.7400    0.0000 C   0  0  0  0  0  0  0  0  0  0  0  0
   -2.0300   -1.9800    0.0000 C   0  0  0  0  0  0  0  0  0  0  0  0
   -3.3200   -2.7300    0.0000 C   0  0  0  0  0  0  0  0  0  0  0  0
   -4.6200   -1.9800    0.0000 C   0  0  0  0  0  0  0  0  0  0  0  0
   -5.9189   -2.7302    0.0000 O   0  0  0  0  0  0  0  0  0  0  0  0
   -4.6200   -0.4800    0.0000 C   0  0  0  0  0  0  0  0  0  0  0  0
   -3.3200    0.2700    0.0000 C   0  0  0  0  0  0  0  0  0  0  0  0
   -2.0200   -0.4800    0.0000 C   0  0  2  0  0  0  0  0  0  0  0  0
   -0.7200    0.2600    0.0000 C   0  0  1  0  0  0  0  0  0  0  0  0
   -0.7100    1.7600    0.0000 C   0  0  0  0  0  0  0  0  0  0  0  0
    0.5900    2.5000    0.0000 C   0  0  0  0  0  0  0  0  0  0  0  0
    1.8800    1.7300    0.0000 C   0  0  1  0  0  0  0  0  0  0  0  0
    2.0546    3.2198    0.0000 C   0  0  0  0  0  0  0  0  0  0  0  0
    1.8600    0.2500    0.0000 C   0  0  1  0  0  0  0  0  0  0  0  0
    3.2800   -0.2500    0.0000 C   0  0  0  0  0  0  0  0  0  0  0  0
    4.1800    0.9600    0.0000 C   0  0  0  0  0  0  0  0  0  0  0  0
    3.3100    2.1800    0.0000 C   0  0  1  0  0  0  0  0  0  0  0  0
    4.6157    2.9183    0.0000 C   0  0  0  0  0  0  0  0  0  0  0  0
    2.9604    3.6387    0.0000 O   0  0  0  0  0  0  0  0  0  0  0  0
    0.5700   -0.4900    0.0000 C   0  0  2  0  0  0  0  0  0  0  0  0
    0.8516    4.1159    0.0000 O   0  0  0  0  0  0  0  0  0  0  0  0
  2  1  1  6  0  0  0
  2  3  1  0  0  0  0
  3  4  1  0  0  0  0
  4  5  2  0  0  0  0
  5  6  1  0  0  0  0
  6  7  2  0  0  0  0
  6  8  1  0  0  0  0
  8  9  1  0  0  0  0
 10  9  1  6  0  0  0
  4 10  1  0  0  0  0
 10 11  1  0  0  0  0
 11 12  1  1  0  0  0
 12 13  1  0  0  0  0
 13 14  1  0  0  0  0
 14 15  1  1  0  0  0
 14 16  1  0  0  0  0
 16 17  1  1  0  0  0
 17 18  1  0  0  0  0
 18 19  1  0  0  0  0
 14 19  1  0  0  0  0
 19 20  1  6  0  0  0
 19 21  1  1  0  0  0
 16 22  1  0  0  0  0
 11 22  1  0  0  0  0
 22  2  1  6  0  0  0
 23 15  1  0  0  0  0
M  END
> <InChI>
InChI=1S/C20H30O3/c1-12-9-13-10-14(22)3-4-15(13)16-5-8-20(11-21)17(18(12)16)6-7-19(20,2)23/h10,12,15-18,21,23H,3-9,11H2,1-2H3/t12-,15+,16-,17+,18-,19+,20-/m1/s1

> <InChIKey>
CSONVSVIGQSXMY-FLGGWWISSA-N

> <SMILES>
C[C@@H]1CC2=CC(=O)CC[C@@H]2[C@H]3CC[C@@]4(CO)[C@@H](CC[C@]4(C)O)[C@@H]31

> <Synonyms>


> <PUBCHEM_CID>


> <Molecular_formula>
C20H30O3

> <Major_Isotope_Mass>
318.21949482

> <ALogP>
2.4931999999999976

> <Lipinski_Violations>
0

> <Insecticide_Likeness_Violations>
0

> <Post_Em_Herbicide_Likeness_Violations>
0

> <Metabolite_ID>
BTM00011

> <Reaction>
Hydroxylation of methyl carbon adjacent to aliphatic ring

> <Reaction_ID>
BTMR0054

> <Enzyme(s)>
CYP2B6
CYP2C8
CYP2C9
CYP2C19
CYP2D6
CYP3A4

> <Biosystem>
HUMAN

> <Precursor_ID>


> <Precursor_SMILES>
C[C@@H]1CC2=CC(=O)CC[C@@H]2[C@H]3CC[C@@]4(C)[C@@H](CC[C@]4(C)O)[C@@H]31

> <Precursor_InChI>
InChI=1S/C20H30O2/c1-12-10-13-11-14(21)4-5-15(13)16-6-8-19(2)17(18(12)16)7-9-20(19,3)22/h11-12,15-18,22H,4-10H2,1-3H3/t12-,15+,16-,17+,18-,19+,20+/m1/s1

> <Precursor_InChIKey>
PTQMMNYJKCSPET-OMHQDGTGSA-N

> <Precursor_ALogP>


> <Precursor_Major_Isotope_Mass>
302.2245

$$$$
BTM00012
  CDK     09122622102D

 22 25  0  0  1  0  0  0  0  0999 V2000
    2.2189   -2.5602    0.0000 C   0  0  0  0  0  0  0  0  0  0  0  0
    0.9200   -1.8100    0.0000 C   0  0  2  0  0  0  0  0  0  0  0  0
   -0.3800   -2.5600    0.0000 C   0  0  0  0  0  0  0  0  0  0  0  0
   -1.6800   -1.8100    0.0000 C   0  0  0  0  0  0  0  0  0  0  0  0
   -2.9800   -2.5600    0.0000 C   0  0  0  0  0  0  0  0  0  0  0  0
   -4.2800   -1.8100    0.0000 C   0  0  0  0  0  0  0  0  0  0  0  0
   -5.5789   -2.5602    0.0000 O   0  0  0  0  0  0  0  0  0  0  0  0
   -4.2800   -0.3100    0.0000 C   0  0  0  0  0  0  0  0  0  0  0  0
   -2.9800    0.4400    0.0000 C   0  0  0  0  0  0  0  0  0  0  0  0
   -1.6800   -0.3100    0.0000 C   0  0  2  0  0  0  0  0  0  0  0  0
   -0.3800    0.4400    0.0000 C   0  0  1  0  0  0  0  0  0  0  0  0
   -0.3800    1.9400    0.0000 C   0  0  0  0  0  0  0  0  0  0  0  0
    0.9200    2.6900    0.0000 C   0  0  0  0  0  0  0  0  0  0  0  0
    2.2200    1.9400    0.0000 C   0  0  1  0  0  0  0  0  0  0  0  0
    2.3787    3.4316    0.0000 C   0  0  0  0  0  0  0  0  0  0  0  0
    2.2200    0.4400    0.0000 C   0  0  1  0  0  0  0  0  0  0  0  0
    3.6500   -0.0200    0.0000 C   0  0  0  0  0  0  0  0  0  0  0  0
    4.5300    1.1900    0.0000 C   0  0  0  0  0  0  0  0  0  0  0  0
    3.6500    2.4000    0.0000 C   0  0  1  0  0  0  0  0  0  0  0  0
    4.9495    3.1491    0.0000 C   0  0  0  0  0  0  0  0  0  0  0  0
    3.6962    0.9007    0.0000 O   0  0  0  0  0  0  0  0  0  0  0  0
    0.9200   -0.3100    0.0000 C   0  0  2  0  0  0  0  0  0  0  0  0
  2  1  1  6  0  0  0
  2  3  1  0  0  0  0
  3  4  1  0  0  0  0
  4  5  1  0  0  0  0
  5  6  1  0  0  0  0
  6  7  2  0  0  0  0
  6  8  1  0  0  0  0
  8  9  1  0  0  0  0
 10  9  1  6  0  0  0
  4 10  1  0  0  0  0
 10 11  1  0  0  0  0
 11 12  1  1  0  0  0
 12 13  1  0  0  0  0
 13 14  1  0  0  0  0
 14 15  1  1  0  0  0
 14 16  1  0  0  0  0
 16 17  1  1  0  0  0
 17 18  1  0  0  0  0
 19 18  1  6  0  0  0
 14 19  1  0  0  0  0
 19 20  1  0  0  0  0
 19 21  1  1  0  0  0
 16 22  1  0  0  0  0
 11 22  1  0  0  0  0
 22  2  1  6  0  0  0
M  END
> <InChI>
InChI=1S/C20H32O2/c1-12-10-13-11-14(21)4-5-15(13)16-6-8-19(2)17(18(12)16)7-9-20(19,3)22/h12-13,15-18,22H,4-11H2,1-3H3/t12-,13?,15+,16-,17+,18-,19+,20+/m1/s1

> <InChIKey>
OHRDUOJVDJXDAS-BCKQCCEISA-N

> <SMILES>
C[C@@H]1CC2CC(=O)CC[C@@H]2[C@H]3CC[C@@]4(C)[C@@H](CC[C@]4(C)O)[C@@H]31

> <Synonyms>


> <PUBCHEM_CID>


> <Molecular_formula>
C20H32O2

> <Major_Isotope_Mass>
304.240230264

> <ALogP>
3.4124999999999925

> <Lipinski_Violations>
0

> <Insecticide_Likeness_Violations>
0

> <Post_Em_Herbicide_Likeness_Violations>
0

> <Metabolite_ID>
BTM00012

> <Reaction>
Reduction of alpha,beta-unsaturated carbon-carbon double bond adjacent to electron withdrawing group

> <Reaction_ID>
BTMR1209

> <Enzyme(s)>
EC 1.6.99.1

> <Biosystem>
GUTMICRO

> <Precursor_ID>


> <Precursor_SMILES>
C[C@@H]1CC2=CC(=O)CC[C@@H]2[C@H]3CC[C@@]4(C)[C@@H](CC[C@]4(C)O)[C@@H]31

> <Precursor_InChI>
InChI=1S/C20H30O2/c1-12-10-13-11-14(21)4-5-15(13)16-6-8-19(2)17(18(12)16)7-9-20(19,3)22/h11-12,15-18,22H,4-10H2,1-3H3/t12-,15+,16-,17+,18-,19+,20+/m1/s1

> <Precursor_InChIKey>
PTQMMNYJKCSPET-OMHQDGTGSA-N

> <Precursor_ALogP>


> <Precursor_Major_Isotope_Mass>
302.2245

$$$$
