BTM00001
  CDK     09122622432D

 30 35  0  0  1  0  0  0  0  0999 V2000
   -0.7425    1.3300    0.0000 C   0  0  0  0  0  0  0  0  0  0  0  0
   -0.7400   -0.1700    0.0000 C   0  0  2  0  0  0  0  0  0  0  0  0
   -2.0300    0.5700    0.0000 C   0  0  0  0  0  0  0  0  0  0  0  0
   -3.3900   -0.1700    0.0000 C   0  0  0  0  0  0  0  0  0  0  0  0
   -4.8300    0.3400    0.0000 C   0  0  0  0  0  0  0  0  0  0  0  0
   -5.6400   -0.9000    0.0000 N   0  0  0  0  0  0  0  0  0  0  0  0
   -4.8300   -2.1100    0.0000 N   0  0  0  0  0  0  0  0  0  0  0  0
   -3.3900   -1.6800    0.0000 C   0  0  0  0  0  0  0  0  0  0  0  0
   -2.0300   -2.3800    0.0000 C   0  0  0  0  0  0  0  0  0  0  0  0
   -0.7400   -1.6800    0.0000 C   0  0  2  0  0  0  0  0  0  0  0  0
    0.5400   -2.3800    0.0000 C   0  0  0  0  0  0  0  0  0  0  0  0
    1.7800   -1.6800    0.0000 C   0  0  0  0  0  0  0  0  0  0  0  0
    1.7800   -0.1700    0.0000 C   0  0  2  0  0  0  0  0  0  0  0  0
    0.5400    0.5700    0.0000 C   0  0  2  0  0  0  0  0  0  0  0  0
    0.5400    2.0900    0.0000 C   0  0  0  0  0  0  0  0  0  0  0  0
    1.7800    2.8700    0.0000 C   0  0  0  0  0  0  0  0  0  0  0  0
    3.1000    2.1300    0.0000 C   0  0  2  0  0  0  0  0  0  0  0  0
    3.2652    3.6209    0.0000 C   0  0  0  0  0  0  0  0  0  0  0  0
    4.5400    2.5600    0.0000 C   0  0  1  0  0  0  0  0  0  0  0  0
    5.0327    3.9768    0.0000 O   0  0  0  0  0  0  0  0  0  0  0  0
    6.5060    4.2585    0.0000 C   0  0  0  0  0  0  0  0  0  0  0  0
    6.9989    5.6752    0.0000 C   0  0  0  0  0  0  0  0  0  0  0  0
    8.4731    5.9564    0.0000 C   0  0  0  0  0  0  0  0  0  0  0  0
    9.4545    4.8209    0.0000 C   0  0  0  0  0  0  0  0  0  0  0  0
    8.9616    3.4042    0.0000 C   0  0  0  0  0  0  0  0  0  0  0  0
    7.4873    3.1230    0.0000 O   0  0  0  0  0  0  0  0  0  0  0  0
    5.3600    1.3900    0.0000 C   0  0  0  0  0  0  0  0  0  0  0  0
    4.5400    0.1500    0.0000 C   0  0  0  0  0  0  0  0  0  0  0  0
    3.1000    0.6500    0.0000 C   0  0  1  0  0  0  0  0  0  0  0  0
   -0.7730    2.8153    0.0000 O   0  0  0  0  0  0  0  0  0  0  0  0
  2  1  1  1  0  0  0
  2  3  1  0  0  0  0
  3  4  1  0  0  0  0
  4  5  1  0  0  0  0
  5  6  2  0  0  0  0
  6  7  1  0  0  0  0
  7  8  1  0  0  0  0
  4  8  2  0  0  0  0
  8  9  1  0  0  0  0
 10  9  1  1  0  0  0
  2 10  1  0  0  0  0
 10 11  1  0  0  0  0
 11 12  1  0  0  0  0
 13 12  1  6  0  0  0
 13 14  1  0  0  0  0
  2 14  1  0  0  0  0
 14 15  1  1  0  0  0
 15 16  1  0  0  0  0
 16 17  1  0  0  0  0
 17 18  1  1  0  0  0
 17 19  1  0  0  0  0
 19 20  1  1  0  0  0
 20 21  1  0  0  0  0
 21 22  1  0  0  0  0
 22 23  1  0  0  0  0
 23 24  1  0  0  0  0
 24 25  1  0  0  0  0
 25 26  1  0  0  0  0
 21 26  1  0  0  0  0
 19 27  1  0  0  0  0
 27 28  1  0  0  0  0
 29 28  1  1  0  0  0
 13 29  1  0  0  0  0
 17 29  1  0  0  0  0
 30 15  1  0  0  0  0
M  END
> <InChI>
InChI=1S/C25H38N2O3/c1-24-12-15-14-26-27-19(15)11-16(24)6-7-17-18-8-9-21(30-22-5-3-4-10-29-22)25(18,2)13-20(28)23(17)24/h14,16-18,20-23,28H,3-13H2,1-2H3,(H,26,27)/t16-,17-,18-,20?,21-,22?,23+,24-,25-/m0/s1

> <InChIKey>
ZUOJDMLSWXRSIB-ZZALSHOESA-N

> <SMILES>
C[C@]12CC=3C=NNC3C[C@@H]1CC[C@@H]4[C@@H]2C(C[C@]5(C)[C@@H](OC6CCCCO6)CC[C@@H]45)O

> <Synonyms>


> <PUBCHEM_CID>


> <Molecular_formula>
C25H38N2O3

> <Major_Isotope_Mass>
414.28824307599996

> <ALogP>
3.6110000000000007

> <Lipinski_Violations>
0

> <Insecticide_Likeness_Violations>
0

> <Post_Em_Herbicide_Likeness_Violations>
0

> <Metabolite_ID>
BTM00001

> <Reaction>
11-beta-Hydroxylation of sterol

> <Reaction_ID>
BTMR0406

> <Enzyme(s)>
EC 1.14.15.4

> <Biosystem>
HUMAN

> <Precursor_ID>


> <Precursor_SMILES>
C[C@]12CC=3C=NNC3C[C@@H]1CC[C@@H]4[C@@H]2CC[C@]5(C)[C@@H](OC6CCCCO6)CC[C@@H]45

> <Precursor_InChI>
InChI=1S/C25H38N2O2/c1-24-11-10-20-18(19(24)8-9-22(24)29-23-5-3-4-12-28-23)7-6-17-13-21-16(15-26-27-21)14-25(17,20)2/h15,17-20,22-23H,3-14H2,1-2H3,(H,26,27)/t17-,18-,19-,20-,22-,23?,24-,25-/m0/s1

> <Precursor_InChIKey>
AGJAMJZFPDQSEW-KOTDIDPQSA-N

> <Precursor_ALogP>


> <Precursor_Major_Isotope_Mass>
398.2933

$$$$
BTM00002
  CDK     09122622432D

 41 47  0  0  1  0  0  0  0  0999 V2000
   -0.7425    1.3300    0.0000 C   0  0  0  0  0  0  0  0  0  0  0  0
   -0.7400   -0.1700    0.0000 C   0  0  2  0  0  0  0  0  0  0  0  0
   -2.0300    0.5700    0.0000 C   0  0  0  0  0  0  0  0  0  0  0  0
   -3.3900   -0.1700    0.0000 C   0  0  0  0  0  0  0  0  0  0  0  0
   -4.8300    0.3400    0.0000 C   0  0  0  0  0  0  0  0  0  0  0  0
   -5.6400   -0.9000    0.0000 N   0  0  0  0  0  0  0  0  0  0  0  0
   -4.8300   -2.1100    0.0000 N   0  0  0  0  0  0  0  0  0  0  0  0
   -3.3900   -1.6800    0.0000 C   0  0  0  0  0  0  0  0  0  0  0  0
   -2.0300   -2.3800    0.0000 C   0  0  0  0  0  0  0  0  0  0  0  0
   -0.7400   -1.6800    0.0000 C   0  0  2  0  0  0  0  0  0  0  0  0
    0.5400   -2.3800    0.0000 C   0  0  0  0  0  0  0  0  0  0  0  0
    1.7800   -1.6800    0.0000 C   0  0  0  0  0  0  0  0  0  0  0  0
    1.7800   -0.1700    0.0000 C   0  0  2  0  0  0  0  0  0  0  0  0
    0.5400    0.5700    0.0000 C   0  0  2  0  0  0  0  0  0  0  0  0
    0.5400    2.0900    0.0000 C   0  0  0  0  0  0  0  0  0  0  0  0
    1.7800    2.8700    0.0000 C   0  0  0  0  0  0  0  0  0  0  0  0
    3.1000    2.1300    0.0000 C   0  0  2  0  0  0  0  0  0  0  0  0
    3.2652    3.6209    0.0000 C   0  0  0  0  0  0  0  0  0  0  0  0
    4.5400    2.5600    0.0000 C   0  0  1  0  0  0  0  0  0  0  0  0
    5.0327    3.9768    0.0000 O   0  0  0  0  0  0  0  0  0  0  0  0
    6.5060    4.2585    0.0000 C   0  0  0  0  0  0  0  0  0  0  0  0
    6.9989    5.6752    0.0000 C   0  0  0  0  0  0  0  0  0  0  0  0
    8.4731    5.9564    0.0000 C   0  0  0  0  0  0  0  0  0  0  0  0
    9.4545    4.8209    0.0000 C   0  0  0  0  0  0  0  0  0  0  0  0
    8.9616    3.4042    0.0000 C   0  0  0  0  0  0  0  0  0  0  0  0
    7.4873    3.1230    0.0000 O   0  0  0  0  0  0  0  0  0  0  0  0
    5.3600    1.3900    0.0000 C   0  0  0  0  0  0  0  0  0  0  0  0
    4.5400    0.1500    0.0000 C   0  0  0  0  0  0  0  0  0  0  0  0
    3.1000    0.6500    0.0000 C   0  0  1  0  0  0  0  0  0  0  0  0
   -8.7976   -5.4663    0.0000 O   0  0  0  0  0  0  0  0  0  0  0  0
   -7.3214   -5.2001    0.0000 C   0  0  0  0  0  0  0  0  0  0  0  0
   -6.8140   -3.7876    0.0000 C   0  0  0  0  0  0  0  0  0  0  0  0
   -7.7828   -2.6425    0.0000 O   0  0  0  0  0  0  0  0  0  0  0  0
   -5.3378   -3.5214    0.0000 C   0  0  0  0  0  0  0  0  0  0  0  0
   -4.3690   -4.6677    0.0000 O   0  0  0  0  0  0  0  0  0  0  0  0
   -4.8764   -6.0802    0.0000 C   0  0  0  0  0  0  0  0  0  0  0  0
   -6.3526   -6.3464    0.0000 C   0  0  0  0  0  0  0  0  0  0  0  0
   -6.8604   -7.7578    0.0000 O   0  0  0  0  0  0  0  0  0  0  0  0
   -3.9076   -7.2253    0.0000 C   0  0  0  0  0  0  0  0  0  0  0  0
   -4.4149   -8.6369    0.0000 O   0  0  0  0  0  0  0  0  0  0  0  0
   -2.4314   -6.9589    0.0000 O   0  0  0  0  0  0  0  0  0  0  0  0
  2  1  1  1  0  0  0
  2  3  1  0  0  0  0
  3  4  1  0  0  0  0
  4  5  1  0  0  0  0
  5  6  2  0  0  0  0
  6  7  1  0  0  0  0
  7  8  1  0  0  0  0
  4  8  2  0  0  0  0
  8  9  1  0  0  0  0
 10  9  1  1  0  0  0
  2 10  1  0  0  0  0
 10 11  1  0  0  0  0
 11 12  1  0  0  0  0
 13 12  1  6  0  0  0
 13 14  1  0  0  0  0
  2 14  1  0  0  0  0
 14 15  1  1  0  0  0
 15 16  1  0  0  0  0
 16 17  1  0  0  0  0
 17 18  1  1  0  0  0
 17 19  1  0  0  0  0
 19 20  1  1  0  0  0
 20 21  1  0  0  0  0
 21 22  1  0  0  0  0
 22 23  1  0  0  0  0
 23 24  1  0  0  0  0
 24 25  1  0  0  0  0
 25 26  1  0  0  0  0
 21 26  1  0  0  0  0
 19 27  1  0  0  0  0
 27 28  1  0  0  0  0
 29 28  1  1  0  0  0
 13 29  1  0  0  0  0
 17 29  1  0  0  0  0
 30 31  1  0  0  0  0
 31 32  1  0  0  0  0
 32 33  1  0  0  0  0
 32 34  1  0  0  0  0
 34 35  1  0  0  0  0
 35 36  1  0  0  0  0
 36 37  1  0  0  0  0
 31 37  1  0  0  0  0
 37 38  1  0  0  0  0
 36 39  1  0  0  0  0
 39 40  1  0  0  0  0
 39 41  2  0  0  0  0
 34  7  1  0  0  0  0
M  END
> <InChI>
InChI=1S/C31H46N2O8/c1-30-11-10-20-18(19(30)8-9-22(30)40-23-5-3-4-12-39-23)7-6-17-13-21-16(14-31(17,20)2)15-32-33(21)28-26(36)24(34)25(35)27(41-28)29(37)38/h15,17-20,22-28,34-36H,3-14H2,1-2H3,(H,37,38)/t17-,18-,19-,20-,22-,23?,24?,25?,26?,27?,28?,30-,31-/m0/s1

> <InChIKey>
YDCIJKPLTJZZQW-IVYYWZLKSA-N

> <SMILES>
C[C@]12CC=3C=NN(C3C[C@@H]1CC[C@@H]4[C@@H]2CC[C@]5(C)[C@@H](OC6CCCCO6)CC[C@@H]45)C7C(C(O)C(C(O7)C(O)=O)O)O

> <Synonyms>


> <PUBCHEM_CID>


> <Molecular_formula>
C31H46N2O8

> <Major_Isotope_Mass>
574.325416432

> <ALogP>
3.0398000000000023

> <Lipinski_Violations>
2

> <Insecticide_Likeness_Violations>
1

> <Post_Em_Herbicide_Likeness_Violations>
1

> <Metabolite_ID>
BTM00002

> <Reaction>
N-Glucuronidation of azole

> <Reaction_ID>
BTMR0174

> <Enzyme(s)>
EC 2.4.1.17

> <Biosystem>
HUMAN

> <Precursor_ID>


> <Precursor_SMILES>
C[C@]12CC=3C=NNC3C[C@@H]1CC[C@@H]4[C@@H]2CC[C@]5(C)[C@@H](OC6CCCCO6)CC[C@@H]45

> <Precursor_InChI>
InChI=1S/C25H38N2O2/c1-24-11-10-20-18(19(24)8-9-22(24)29-23-5-3-4-12-28-23)7-6-17-13-21-16(15-26-27-21)14-25(17,20)2/h15,17-20,22-23H,3-14H2,1-2H3,(H,26,27)/t17-,18-,19-,20-,22-,23?,24-,25-/m0/s1

> <Precursor_InChIKey>
AGJAMJZFPDQSEW-KOTDIDPQSA-N

> <Precursor_ALogP>


> <Precursor_Major_Isotope_Mass>
398.2933

$$$$
BTM00003
  CDK     09122622432D

 30 35  0  0  1  0  0  0  0  0999 V2000
   -0.7425    1.3300    0.0000 C   0  0  0  0  0  0  0  0  0  0  0  0
   -0.7400   -0.1700    0.0000 C   0  0  2  0  0  0  0  0  0  0  0  0
   -2.0300    0.5700    0.0000 C   0  0  0  0  0  0  0  0  0  0  0  0
   -3.3900   -0.1700    0.0000 C   0  0  0  0  0  0  0  0  0  0  0  0
   -4.8300    0.3400    0.0000 C   0  0  0  0  0  0  0  0  0  0  0  0
   -5.6400   -0.9000    0.0000 N   0  0  0  0  0  0  0  0  0  0  0  0
   -4.8300   -2.1100    0.0000 N   0  0  0  0  0  0  0  0  0  0  0  0
   -3.3900   -1.6800    0.0000 C   0  0  0  0  0  0  0  0  0  0  0  0
   -2.0300   -2.3800    0.0000 C   0  0  0  0  0  0  0  0  0  0  0  0
   -0.7400   -1.6800    0.0000 C   0  0  2  0  0  0  0  0  0  0  0  0
    0.5400   -2.3800    0.0000 C   0  0  0  0  0  0  0  0  0  0  0  0
    1.7800   -1.6800    0.0000 C   0  0  0  0  0  0  0  0  0  0  0  0
    1.7800   -0.1700    0.0000 C   0  0  2  0  0  0  0  0  0  0  0  0
    0.5400    0.5700    0.0000 C   0  0  2  0  0  0  0  0  0  0  0  0
    0.5400    2.0900    0.0000 C   0  0  0  0  0  0  0  0  0  0  0  0
    1.7800    2.8700    0.0000 C   0  0  0  0  0  0  0  0  0  0  0  0
    3.1000    2.1300    0.0000 C   0  0  2  0  0  0  0  0  0  0  0  0
    3.2652    3.6209    0.0000 C   0  0  0  0  0  0  0  0  0  0  0  0
    4.5400    2.5600    0.0000 C   0  0  1  0  0  0  0  0  0  0  0  0
    5.0327    3.9768    0.0000 O   0  0  0  0  0  0  0  0  0  0  0  0
    6.5060    4.2585    0.0000 C   0  0  0  0  0  0  0  0  0  0  0  0
    6.9989    5.6752    0.0000 C   0  0  0  0  0  0  0  0  0  0  0  0
    8.4731    5.9564    0.0000 C   0  0  0  0  0  0  0  0  0  0  0  0
    9.4545    4.8209    0.0000 C   0  0  0  0  0  0  0  0  0  0  0  0
    8.9616    3.4042    0.0000 C   0  0  0  0  0  0  0  0  0  0  0  0
    7.4873    3.1230    0.0000 O   0  0  0  0  0  0  0  0  0  0  0  0
    5.3600    1.3900    0.0000 C   0  0  0  0  0  0  0  0  0  0  0  0
    4.5400    0.1500    0.0000 C   0  0  0  0  0  0  0  0  0  0  0  0
    3.1000    0.6500    0.0000 C   0  0  1  0  0  0  0  0  0  0  0  0
    6.8599    1.4103    0.0000 O   0  0  0  0  0  0  0  0  0  0  0  0
  2  1  1  1  0  0  0
  2  3  1  0  0  0  0
  3  4  1  0  0  0  0
  4  5  1  0  0  0  0
  5  6  2  0  0  0  0
  6  7  1  0  0  0  0
  7  8  1  0  0  0  0
  4  8  2  0  0  0  0
  8  9  1  0  0  0  0
 10  9  1  1  0  0  0
  2 10  1  0  0  0  0
 10 11  1  0  0  0  0
 11 12  1  0  0  0  0
 13 12  1  6  0  0  0
 13 14  1  0  0  0  0
  2 14  1  0  0  0  0
 14 15  1  1  0  0  0
 15 16  1  0  0  0  0
 16 17  1  0  0  0  0
 17 18  1  1  0  0  0
 17 19  1  0  0  0  0
 19 20  1  1  0  0  0
 20 21  1  0  0  0  0
 21 22  1  0  0  0  0
 22 23  1  0  0  0  0
 23 24  1  0  0  0  0
 24 25  1  0  0  0  0
 25 26  1  0  0  0  0
 21 26  1  0  0  0  0
 19 27  1  0  0  0  0
 27 28  1  0  0  0  0
 29 28  1  1  0  0  0
 13 29  1  0  0  0  0
 17 29  1  0  0  0  0
 30 27  1  0  0  0  0
M  END
> <InChI>
InChI=1S/C25H38N2O3/c1-24-9-8-18-17(7-6-16-11-20-15(14-26-27-20)13-25(16,18)2)19(24)12-21(28)23(24)30-22-5-3-4-10-29-22/h14,16-19,21-23,28H,3-13H2,1-2H3,(H,26,27)/t16-,17+,18-,19-,21?,22?,23-,24-,25-/m0/s1

> <InChIKey>
DOCIINCEEQUIPS-HEBMZHPOSA-N

> <SMILES>
C[C@]12CC=3C=NNC3C[C@@H]1CC[C@@H]4[C@@H]2CC[C@]5(C)[C@@H](OC6CCCCO6)C(C[C@@H]45)O

> <Synonyms>


> <PUBCHEM_CID>


> <Molecular_formula>
C25H38N2O3

> <Major_Isotope_Mass>
414.28824307599996

> <ALogP>
3.8134999999999994

> <Lipinski_Violations>
1

> <Insecticide_Likeness_Violations>
0

> <Post_Em_Herbicide_Likeness_Violations>
0

> <Metabolite_ID>
BTM00003

> <Reaction>
16-Hydroxylation of sterol

> <Reaction_ID>
BTMR0407

> <Enzyme(s)>
CYP1A2
CYP2A6
CYP2B6
CYP2C8
CYP2C9
CYP2C19
CYP2D6
CYP2E1
CYP3A4

> <Biosystem>
HUMAN

> <Precursor_ID>


> <Precursor_SMILES>
C[C@]12CC=3C=NNC3C[C@@H]1CC[C@@H]4[C@@H]2CC[C@]5(C)[C@@H](OC6CCCCO6)CC[C@@H]45

> <Precursor_InChI>
InChI=1S/C25H38N2O2/c1-24-11-10-20-18(19(24)8-9-22(24)29-23-5-3-4-12-28-23)7-6-17-13-21-16(15-26-27-21)14-25(17,20)2/h15,17-20,22-23H,3-14H2,1-2H3,(H,26,27)/t17-,18-,19-,20-,22-,23?,24-,25-/m0/s1

> <Precursor_InChIKey>
AGJAMJZFPDQSEW-KOTDIDPQSA-N

> <Precursor_ALogP>


> <Precursor_Major_Isotope_Mass>
398.2933

$$$$
BTM00004
  CDK     09122622432D

 30 35  0  0  1  0  0  0  0  0999 V2000
   -0.7425    1.3300    0.0000 C   0  0  0  0  0  0  0  0  0  0  0  0
   -0.7400   -0.1700    0.0000 C   0  0  2  0  0  0  0  0  0  0  0  0
   -2.0300    0.5700    0.0000 C   0  0  0  0  0  0  0  0  0  0  0  0
   -3.3900   -0.1700    0.0000 C   0  0  0  0  0  0  0  0  0  0  0  0
   -4.8300    0.3400    0.0000 C   0  0  0  0  0  0  0  0  0  0  0  0
   -5.6400   -0.9000    0.0000 N   0  0  0  0  0  0  0  0  0  0  0  0
   -4.8300   -2.1100    0.0000 N   0  0  0  0  0  0  0  0  0  0  0  0
   -3.3900   -1.6800    0.0000 C   0  0  0  0  0  0  0  0  0  0  0  0
   -2.0300   -2.3800    0.0000 C   0  0  0  0  0  0  0  0  0  0  0  0
   -0.7400   -1.6800    0.0000 C   0  0  2  0  0  0  0  0  0  0  0  0
    0.5400   -2.3800    0.0000 C   0  0  0  0  0  0  0  0  0  0  0  0
    1.7800   -1.6800    0.0000 C   0  0  0  0  0  0  0  0  0  0  0  0
    1.7800   -0.1700    0.0000 C   0  0  2  0  0  0  0  0  0  0  0  0
    0.5400    0.5700    0.0000 C   0  0  2  0  0  0  0  0  0  0  0  0
    0.5400    2.0900    0.0000 C   0  0  0  0  0  0  0  0  0  0  0  0
    1.7800    2.8700    0.0000 C   0  0  0  0  0  0  0  0  0  0  0  0
    3.1000    2.1300    0.0000 C   0  0  2  0  0  0  0  0  0  0  0  0
    3.2652    3.6209    0.0000 C   0  0  0  0  0  0  0  0  0  0  0  0
    4.5400    2.5600    0.0000 C   0  0  1  0  0  0  0  0  0  0  0  0
    5.0327    3.9768    0.0000 O   0  0  0  0  0  0  0  0  0  0  0  0
    6.5060    4.2585    0.0000 C   0  0  0  0  0  0  0  0  0  0  0  0
    6.9989    5.6752    0.0000 C   0  0  0  0  0  0  0  0  0  0  0  0
    8.4731    5.9564    0.0000 C   0  0  0  0  0  0  0  0  0  0  0  0
    9.4545    4.8209    0.0000 C   0  0  0  0  0  0  0  0  0  0  0  0
    8.9616    3.4042    0.0000 C   0  0  0  0  0  0  0  0  0  0  0  0
    7.4873    3.1230    0.0000 O   0  0  0  0  0  0  0  0  0  0  0  0
    5.3600    1.3900    0.0000 C   0  0  0  0  0  0  0  0  0  0  0  0
    4.5400    0.1500    0.0000 C   0  0  0  0  0  0  0  0  0  0  0  0
    3.1000    0.6500    0.0000 C   0  0  1  0  0  0  0  0  0  0  0  0
   -2.0136   -3.8799    0.0000 O   0  0  0  0  0  0  0  0  0  0  0  0
  2  1  1  1  0  0  0
  2  3  1  0  0  0  0
  3  4  1  0  0  0  0
  4  5  1  0  0  0  0
  5  6  2  0  0  0  0
  6  7  1  0  0  0  0
  7  8  1  0  0  0  0
  4  8  2  0  0  0  0
  8  9  1  0  0  0  0
  9 10  1  0  0  0  0
  2 10  1  0  0  0  0
 10 11  1  1  0  0  0
 11 12  1  0  0  0  0
 13 12  1  6  0  0  0
 13 14  1  0  0  0  0
  2 14  1  0  0  0  0
 14 15  1  1  0  0  0
 15 16  1  0  0  0  0
 16 17  1  0  0  0  0
 17 18  1  1  0  0  0
 17 19  1  0  0  0  0
 19 20  1  1  0  0  0
 20 21  1  0  0  0  0
 21 22  1  0  0  0  0
 22 23  1  0  0  0  0
 23 24  1  0  0  0  0
 24 25  1  0  0  0  0
 25 26  1  0  0  0  0
 21 26  1  0  0  0  0
 19 27  1  0  0  0  0
 27 28  1  0  0  0  0
 29 28  1  1  0  0  0
 13 29  1  0  0  0  0
 17 29  1  0  0  0  0
 30  9  1  0  0  0  0
M  END
> <InChI>
InChI=1S/C25H38N2O3/c1-24-11-10-18-16(17(24)8-9-20(24)30-21-5-3-4-12-29-21)6-7-19-23(28)22-15(14-26-27-22)13-25(18,19)2/h14,16-21,23,28H,3-13H2,1-2H3,(H,26,27)/t16-,17-,18-,19-,20-,21?,23?,24-,25+/m0/s1

> <InChIKey>
MSABYFGRLATHPU-GWDZHIRMSA-N

> <SMILES>
C[C@]12CC=3C=NNC3C([C@@H]1CC[C@@H]4[C@@H]2CC[C@]5(C)[C@@H](OC6CCCCO6)CC[C@@H]45)O

> <Synonyms>


> <PUBCHEM_CID>


> <Molecular_formula>
C25H38N2O3

> <Major_Isotope_Mass>
414.28824307599996

> <ALogP>
4.1674

> <Lipinski_Violations>
1

> <Insecticide_Likeness_Violations>
0

> <Post_Em_Herbicide_Likeness_Violations>
0

> <Metabolite_ID>
BTM00004

> <Reaction>
4-Hydroxylation of sterol

> <Reaction_ID>
BTMR0400

> <Enzyme(s)>
CYP1A2
CYP3A4

> <Biosystem>
HUMAN

> <Precursor_ID>


> <Precursor_SMILES>
C[C@]12CC=3C=NNC3C[C@@H]1CC[C@@H]4[C@@H]2CC[C@]5(C)[C@@H](OC6CCCCO6)CC[C@@H]45

> <Precursor_InChI>
InChI=1S/C25H38N2O2/c1-24-11-10-20-18(19(24)8-9-22(24)29-23-5-3-4-12-28-23)7-6-17-13-21-16(15-26-27-21)14-25(17,20)2/h15,17-20,22-23H,3-14H2,1-2H3,(H,26,27)/t17-,18-,19-,20-,22-,23?,24-,25-/m0/s1

> <Precursor_InChIKey>
AGJAMJZFPDQSEW-KOTDIDPQSA-N

> <Precursor_ALogP>


> <Precursor_Major_Isotope_Mass>
398.2933

$$$$
BTM00004
  CDK     09122622432D

 30 35  0  0  1  0  0  0  0  0999 V2000
   -0.7425    1.3300    0.0000 C   0  0  0  0  0  0  0  0  0  0  0  0
   -0.7400   -0.1700    0.0000 C   0  0  2  0  0  0  0  0  0  0  0  0
   -2.0300    0.5700    0.0000 C   0  0  0  0  0  0  0  0  0  0  0  0
   -3.3900   -0.1700    0.0000 C   0  0  0  0  0  0  0  0  0  0  0  0
   -4.8300    0.3400    0.0000 C   0  0  0  0  0  0  0  0  0  0  0  0
   -5.6400   -0.9000    0.0000 N   0  0  0  0  0  0  0  0  0  0  0  0
   -4.8300   -2.1100    0.0000 N   0  0  0  0  0  0  0  0  0  0  0  0
   -3.3900   -1.6800    0.0000 C   0  0  0  0  0  0  0  0  0  0  0  0
   -2.0300   -2.3800    0.0000 C   0  0  0  0  0  0  0  0  0  0  0  0
   -0.7400   -1.6800    0.0000 C   0  0  2  0  0  0  0  0  0  0  0  0
    0.5400   -2.3800    0.0000 C   0  0  0  0  0  0  0  0  0  0  0  0
    1.7800   -1.6800    0.0000 C   0  0  0  0  0  0  0  0  0  0  0  0
    1.7800   -0.1700    0.0000 C   0  0  2  0  0  0  0  0  0  0  0  0
    0.5400    0.5700    0.0000 C   0  0  2  0  0  0  0  0  0  0  0  0
    0.5400    2.0900    0.0000 C   0  0  0  0  0  0  0  0  0  0  0  0
    1.7800    2.8700    0.0000 C   0  0  0  0  0  0  0  0  0  0  0  0
    3.1000    2.1300    0.0000 C   0  0  2  0  0  0  0  0  0  0  0  0
    3.2652    3.6209    0.0000 C   0  0  0  0  0  0  0  0  0  0  0  0
    4.5400    2.5600    0.0000 C   0  0  1  0  0  0  0  0  0  0  0  0
    5.0327    3.9768    0.0000 O   0  0  0  0  0  0  0  0  0  0  0  0
    6.5060    4.2585    0.0000 C   0  0  0  0  0  0  0  0  0  0  0  0
    6.9989    5.6752    0.0000 C   0  0  0  0  0  0  0  0  0  0  0  0
    8.4731    5.9564    0.0000 C   0  0  0  0  0  0  0  0  0  0  0  0
    9.4545    4.8209    0.0000 C   0  0  0  0  0  0  0  0  0  0  0  0
    8.9616    3.4042    0.0000 C   0  0  0  0  0  0  0  0  0  0  0  0
    7.4873    3.1230    0.0000 O   0  0  0  0  0  0  0  0  0  0  0  0
    5.3600    1.3900    0.0000 C   0  0  0  0  0  0  0  0  0  0  0  0
    4.5400    0.1500    0.0000 C   0  0  0  0  0  0  0  0  0  0  0  0
    3.1000    0.6500    0.0000 C   0  0  1  0  0  0  0  0  0  0  0  0
   -2.0136   -3.8799    0.0000 O   0  0  0  0  0  0  0  0  0  0  0  0
  2  1  1  1  0  0  0
  2  3  1  0  0  0  0
  3  4  1  0  0  0  0
  4  5  1  0  0  0  0
  5  6  2  0  0  0  0
  6  7  1  0  0  0  0
  7  8  1  0  0  0  0
  4  8  2  0  0  0  0
  8  9  1  0  0  0  0
  9 10  1  0  0  0  0
  2 10  1  0  0  0  0
 10 11  1  1  0  0  0
 11 12  1  0  0  0  0
 13 12  1  6  0  0  0
 13 14  1  0  0  0  0
  2 14  1  0  0  0  0
 14 15  1  1  0  0  0
 15 16  1  0  0  0  0
 16 17  1  0  0  0  0
 17 18  1  1  0  0  0
 17 19  1  0  0  0  0
 19 20  1  1  0  0  0
 20 21  1  0  0  0  0
 21 22  1  0  0  0  0
 22 23  1  0  0  0  0
 23 24  1  0  0  0  0
 24 25  1  0  0  0  0
 25 26  1  0  0  0  0
 21 26  1  0  0  0  0
 19 27  1  0  0  0  0
 27 28  1  0  0  0  0
 29 28  1  1  0  0  0
 13 29  1  0  0  0  0
 17 29  1  0  0  0  0
 30  9  1  0  0  0  0
M  END
> <InChI>
InChI=1S/C25H38N2O3/c1-24-11-10-18-16(17(24)8-9-20(24)30-21-5-3-4-12-29-21)6-7-19-23(28)22-15(14-26-27-22)13-25(18,19)2/h14,16-21,23,28H,3-13H2,1-2H3,(H,26,27)/t16-,17-,18-,19-,20-,21?,23?,24-,25+/m0/s1

> <InChIKey>
MSABYFGRLATHPU-GWDZHIRMSA-N

> <SMILES>
C[C@]12CC=3C=NNC3C([C@@H]1CC[C@@H]4[C@@H]2CC[C@]5(C)[C@@H](OC6CCCCO6)CC[C@@H]45)O

> <Synonyms>


> <PUBCHEM_CID>


> <Molecular_formula>
C25H38N2O3

> <Major_Isotope_Mass>
414.28824307599996

> <ALogP>
4.1674

> <Lipinski_Violations>
1

> <Insecticide_Likeness_Violations>
0

> <Post_Em_Herbicide_Likeness_Violations>
0

> <Metabolite_ID>
BTM00004

> <Reaction>
Hydroxylation of heteroalicyclic secondary carbon

> <Reaction_ID>
BTMR1071

> <Enzyme(s)>
CYP1A2

> <Biosystem>
HUMAN

> <Precursor_ID>


> <Precursor_SMILES>
C[C@]12CC=3C=NNC3C[C@@H]1CC[C@@H]4[C@@H]2CC[C@]5(C)[C@@H](OC6CCCCO6)CC[C@@H]45

> <Precursor_InChI>
InChI=1S/C25H38N2O2/c1-24-11-10-20-18(19(24)8-9-22(24)29-23-5-3-4-12-28-23)7-6-17-13-21-16(15-26-27-21)14-25(17,20)2/h15,17-20,22-23H,3-14H2,1-2H3,(H,26,27)/t17-,18-,19-,20-,22-,23?,24-,25-/m0/s1

> <Precursor_InChIKey>
AGJAMJZFPDQSEW-KOTDIDPQSA-N

> <Precursor_ALogP>


> <Precursor_Major_Isotope_Mass>
398.2933

$$$$
BTM00005
  CDK     09122622432D

 30 35  0  0  1  0  0  0  0  0999 V2000
   -0.7425    1.3300    0.0000 C   0  0  0  0  0  0  0  0  0  0  0  0
   -0.7400   -0.1700    0.0000 C   0  0  2  0  0  0  0  0  0  0  0  0
   -2.0300    0.5700    0.0000 C   0  0  0  0  0  0  0  0  0  0  0  0
   -3.3900   -0.1700    0.0000 C   0  0  0  0  0  0  0  0  0  0  0  0
   -4.8300    0.3400    0.0000 C   0  0  0  0  0  0  0  0  0  0  0  0
   -5.6400   -0.9000    0.0000 N   0  0  0  0  0  0  0  0  0  0  0  0
   -4.8300   -2.1100    0.0000 N   0  0  0  0  0  0  0  0  0  0  0  0
   -3.3900   -1.6800    0.0000 C   0  0  0  0  0  0  0  0  0  0  0  0
   -2.0300   -2.3800    0.0000 C   0  0  0  0  0  0  0  0  0  0  0  0
   -0.7400   -1.6800    0.0000 C   0  0  2  0  0  0  0  0  0  0  0  0
    0.5400   -2.3800    0.0000 C   0  0  0  0  0  0  0  0  0  0  0  0
    1.7800   -1.6800    0.0000 C   0  0  0  0  0  0  0  0  0  0  0  0
    1.7800   -0.1700    0.0000 C   0  0  2  0  0  0  0  0  0  0  0  0
    0.5400    0.5700    0.0000 C   0  0  2  0  0  0  0  0  0  0  0  0
    0.5400    2.0900    0.0000 C   0  0  0  0  0  0  0  0  0  0  0  0
    1.7800    2.8700    0.0000 C   0  0  0  0  0  0  0  0  0  0  0  0
    3.1000    2.1300    0.0000 C   0  0  2  0  0  0  0  0  0  0  0  0
    3.2652    3.6209    0.0000 C   0  0  0  0  0  0  0  0  0  0  0  0
    4.5400    2.5600    0.0000 C   0  0  1  0  0  0  0  0  0  0  0  0
    5.0327    3.9768    0.0000 O   0  0  0  0  0  0  0  0  0  0  0  0
    6.5060    4.2585    0.0000 C   0  0  0  0  0  0  0  0  0  0  0  0
    7.4868    3.1236    0.0000 C   0  0  0  0  0  0  0  0  0  0  0  0
    8.9608    3.4062    0.0000 C   0  0  0  0  0  0  0  0  0  0  0  0
    9.4539    4.8237    0.0000 C   0  0  0  0  0  0  0  0  0  0  0  0
    8.4731    5.9586    0.0000 C   0  0  0  0  0  0  0  0  0  0  0  0
    6.9991    5.6760    0.0000 O   0  0  0  0  0  0  0  0  0  0  0  0
    5.3600    1.3900    0.0000 C   0  0  0  0  0  0  0  0  0  0  0  0
    4.5400    0.1500    0.0000 C   0  0  0  0  0  0  0  0  0  0  0  0
    3.1000    0.6500    0.0000 C   0  0  1  0  0  0  0  0  0  0  0  0
    6.9946    1.7067    0.0000 O   0  0  0  0  0  0  0  0  0  0  0  0
  2  1  1  1  0  0  0
  2  3  1  0  0  0  0
  3  4  1  0  0  0  0
  4  5  1  0  0  0  0
  5  6  2  0  0  0  0
  6  7  1  0  0  0  0
  7  8  1  0  0  0  0
  4  8  2  0  0  0  0
  8  9  1  0  0  0  0
 10  9  1  1  0  0  0
  2 10  1  0  0  0  0
 10 11  1  0  0  0  0
 11 12  1  0  0  0  0
 13 12  1  6  0  0  0
 13 14  1  0  0  0  0
  2 14  1  0  0  0  0
 14 15  1  1  0  0  0
 15 16  1  0  0  0  0
 16 17  1  0  0  0  0
 17 18  1  1  0  0  0
 17 19  1  0  0  0  0
 19 20  1  1  0  0  0
 20 21  1  0  0  0  0
 21 22  1  0  0  0  0
 22 23  1  0  0  0  0
 23 24  1  0  0  0  0
 24 25  1  0  0  0  0
 25 26  1  0  0  0  0
 21 26  1  0  0  0  0
 19 27  1  0  0  0  0
 27 28  1  0  0  0  0
 29 28  1  1  0  0  0
 13 29  1  0  0  0  0
 17 29  1  0  0  0  0
 30 22  1  0  0  0  0
M  END
> <InChI>
InChI=1S/C25H38N2O3/c1-24-10-9-19-17(6-5-16-12-20-15(14-26-27-20)13-25(16,19)2)18(24)7-8-22(24)30-23-21(28)4-3-11-29-23/h14,16-19,21-23,28H,3-13H2,1-2H3,(H,26,27)/t16-,17-,18-,19-,21?,22-,23?,24-,25-/m0/s1

> <InChIKey>
VCUKEEMWYBIBDF-BRPMYFITSA-N

> <SMILES>
C[C@]12CC=3C=NNC3C[C@@H]1CC[C@@H]4[C@@H]2CC[C@]5(C)[C@@H](OC6C(CCCO6)O)CC[C@@H]45

> <Synonyms>


> <PUBCHEM_CID>


> <Molecular_formula>
C25H38N2O3

> <Major_Isotope_Mass>
414.28824307599996

> <ALogP>
4.072299999999999

> <Lipinski_Violations>
1

> <Insecticide_Likeness_Violations>
0

> <Post_Em_Herbicide_Likeness_Violations>
0

> <Metabolite_ID>
BTM00005

> <Reaction>
Hydroxylation of heteroalicyclic secondary carbon

> <Reaction_ID>
BTMR1071

> <Enzyme(s)>
CYP1A2

> <Biosystem>
HUMAN

> <Precursor_ID>


> <Precursor_SMILES>
C[C@]12CC=3C=NNC3C[C@@H]1CC[C@@H]4[C@@H]2CC[C@]5(C)[C@@H](OC6CCCCO6)CC[C@@H]45

> <Precursor_InChI>
InChI=1S/C25H38N2O2/c1-24-11-10-20-18(19(24)8-9-22(24)29-23-5-3-4-12-28-23)7-6-17-13-21-16(15-26-27-21)14-25(17,20)2/h15,17-20,22-23H,3-14H2,1-2H3,(H,26,27)/t17-,18-,19-,20-,22-,23?,24-,25-/m0/s1

> <Precursor_InChIKey>
AGJAMJZFPDQSEW-KOTDIDPQSA-N

> <Precursor_ALogP>


> <Precursor_Major_Isotope_Mass>
398.2933

$$$$
BTM00006
  CDK     09122622432D

 30 35  0  0  1  0  0  0  0  0999 V2000
   -0.7425    1.3300    0.0000 C   0  0  0  0  0  0  0  0  0  0  0  0
   -0.7400   -0.1700    0.0000 C   0  0  2  0  0  0  0  0  0  0  0  0
   -2.0300    0.5700    0.0000 C   0  0  0  0  0  0  0  0  0  0  0  0
   -3.3900   -0.1700    0.0000 C   0  0  0  0  0  0  0  0  0  0  0  0
   -4.8300    0.3400    0.0000 C   0  0  0  0  0  0  0  0  0  0  0  0
   -5.6400   -0.9000    0.0000 N   0  0  0  0  0  0  0  0  0  0  0  0
   -4.8300   -2.1100    0.0000 N   0  0  0  0  0  0  0  0  0  0  0  0
   -3.3900   -1.6800    0.0000 C   0  0  0  0  0  0  0  0  0  0  0  0
   -2.0300   -2.3800    0.0000 C   0  0  0  0  0  0  0  0  0  0  0  0
   -0.7400   -1.6800    0.0000 C   0  0  2  0  0  0  0  0  0  0  0  0
    0.5400   -2.3800    0.0000 C   0  0  0  0  0  0  0  0  0  0  0  0
    1.7800   -1.6800    0.0000 C   0  0  0  0  0  0  0  0  0  0  0  0
    1.7800   -0.1700    0.0000 C   0  0  2  0  0  0  0  0  0  0  0  0
    0.5400    0.5700    0.0000 C   0  0  2  0  0  0  0  0  0  0  0  0
    0.5400    2.0900    0.0000 C   0  0  0  0  0  0  0  0  0  0  0  0
    1.7800    2.8700    0.0000 C   0  0  0  0  0  0  0  0  0  0  0  0
    3.1000    2.1300    0.0000 C   0  0  2  0  0  0  0  0  0  0  0  0
    3.2652    3.6209    0.0000 C   0  0  0  0  0  0  0  0  0  0  0  0
    4.5400    2.5600    0.0000 C   0  0  1  0  0  0  0  0  0  0  0  0
    5.0327    3.9768    0.0000 O   0  0  0  0  0  0  0  0  0  0  0  0
    6.5060    4.2585    0.0000 C   0  0  0  0  0  0  0  0  0  0  0  0
    7.4868    3.1236    0.0000 C   0  0  0  0  0  0  0  0  0  0  0  0
    8.9608    3.4062    0.0000 C   0  0  0  0  0  0  0  0  0  0  0  0
    9.4539    4.8237    0.0000 C   0  0  0  0  0  0  0  0  0  0  0  0
    8.4731    5.9586    0.0000 C   0  0  0  0  0  0  0  0  0  0  0  0
    6.9991    5.6760    0.0000 O   0  0  0  0  0  0  0  0  0  0  0  0
    5.3600    1.3900    0.0000 C   0  0  0  0  0  0  0  0  0  0  0  0
    4.5400    0.1500    0.0000 C   0  0  0  0  0  0  0  0  0  0  0  0
    3.1000    0.6500    0.0000 C   0  0  1  0  0  0  0  0  0  0  0  0
   10.9273    5.1054    0.0000 O   0  0  0  0  0  0  0  0  0  0  0  0
  2  1  1  1  0  0  0
  2  3  1  0  0  0  0
  3  4  1  0  0  0  0
  4  5  1  0  0  0  0
  5  6  2  0  0  0  0
  6  7  1  0  0  0  0
  7  8  1  0  0  0  0
  4  8  2  0  0  0  0
  8  9  1  0  0  0  0
 10  9  1  1  0  0  0
  2 10  1  0  0  0  0
 10 11  1  0  0  0  0
 11 12  1  0  0  0  0
 13 12  1  6  0  0  0
 13 14  1  0  0  0  0
  2 14  1  0  0  0  0
 14 15  1  1  0  0  0
 15 16  1  0  0  0  0
 16 17  1  0  0  0  0
 17 18  1  1  0  0  0
 17 19  1  0  0  0  0
 19 20  1  1  0  0  0
 20 21  1  0  0  0  0
 21 22  1  0  0  0  0
 22 23  1  0  0  0  0
 23 24  1  0  0  0  0
 24 25  1  0  0  0  0
 25 26  1  0  0  0  0
 21 26  1  0  0  0  0
 19 27  1  0  0  0  0
 27 28  1  0  0  0  0
 29 28  1  1  0  0  0
 13 29  1  0  0  0  0
 17 29  1  0  0  0  0
 30 24  1  0  0  0  0
M  END
> <InChI>
InChI=1S/C25H38N2O3/c1-24-10-9-20-18(5-3-16-11-21-15(13-26-27-21)12-25(16,20)2)19(24)6-7-22(24)30-23-8-4-17(28)14-29-23/h13,16-20,22-23,28H,3-12,14H2,1-2H3,(H,26,27)/t16-,17?,18-,19-,20-,22-,23?,24-,25-/m0/s1

> <InChIKey>
JUYVFVYQOAJQDX-SPJBQPCWSA-N

> <SMILES>
C[C@]12CC=3C=NNC3C[C@@H]1CC[C@@H]4[C@@H]2CC[C@]5(C)[C@@H](OC6CCC(CO6)O)CC[C@@H]45

> <Synonyms>


> <PUBCHEM_CID>


> <Molecular_formula>
C25H38N2O3

> <Major_Isotope_Mass>
414.288243076

> <ALogP>
3.8134999999999994

> <Lipinski_Violations>
1

> <Insecticide_Likeness_Violations>
0

> <Post_Em_Herbicide_Likeness_Violations>
0

> <Metabolite_ID>
BTM00006

> <Reaction>
Hydroxylation of heteroalicyclic secondary carbon

> <Reaction_ID>
BTMR1071

> <Enzyme(s)>
CYP1A2

> <Biosystem>
HUMAN

> <Precursor_ID>


> <Precursor_SMILES>
C[C@]12CC=3C=NNC3C[C@@H]1CC[C@@H]4[C@@H]2CC[C@]5(C)[C@@H](OC6CCCCO6)CC[C@@H]45

> <Precursor_InChI>
InChI=1S/C25H38N2O2/c1-24-11-10-20-18(19(24)8-9-22(24)29-23-5-3-4-12-28-23)7-6-17-13-21-16(15-26-27-21)14-25(17,20)2/h15,17-20,22-23H,3-14H2,1-2H3,(H,26,27)/t17-,18-,19-,20-,22-,23?,24-,25-/m0/s1

> <Precursor_InChIKey>
AGJAMJZFPDQSEW-KOTDIDPQSA-N

> <Precursor_ALogP>


> <Precursor_Major_Isotope_Mass>
398.2933

$$$$
BTM00007
  CDK     09122622432D

 30 35  0  0  1  0  0  0  0  0999 V2000
   -0.7425    1.3300    0.0000 C   0  0  0  0  0  0  0  0  0  0  0  0
   -0.7400   -0.1700    0.0000 C   0  0  2  0  0  0  0  0  0  0  0  0
   -2.0300    0.5700    0.0000 C   0  0  0  0  0  0  0  0  0  0  0  0
   -3.3900   -0.1700    0.0000 C   0  0  0  0  0  0  0  0  0  0  0  0
   -4.8300    0.3400    0.0000 C   0  0  0  0  0  0  0  0  0  0  0  0
   -5.6400   -0.9000    0.0000 N   0  0  0  0  0  0  0  0  0  0  0  0
   -4.8300   -2.1100    0.0000 N   0  0  0  0  0  0  0  0  0  0  0  0
   -3.3900   -1.6800    0.0000 C   0  0  0  0  0  0  0  0  0  0  0  0
   -2.0300   -2.3800    0.0000 C   0  0  0  0  0  0  0  0  0  0  0  0
   -0.7400   -1.6800    0.0000 C   0  0  2  0  0  0  0  0  0  0  0  0
    0.5400   -2.3800    0.0000 C   0  0  0  0  0  0  0  0  0  0  0  0
    1.7800   -1.6800    0.0000 C   0  0  0  0  0  0  0  0  0  0  0  0
    1.7800   -0.1700    0.0000 C   0  0  2  0  0  0  0  0  0  0  0  0
    0.5400    0.5700    0.0000 C   0  0  2  0  0  0  0  0  0  0  0  0
    0.5400    2.0900    0.0000 C   0  0  0  0  0  0  0  0  0  0  0  0
    1.7800    2.8700    0.0000 C   0  0  0  0  0  0  0  0  0  0  0  0
    3.1000    2.1300    0.0000 C   0  0  2  0  0  0  0  0  0  0  0  0
    3.2652    3.6209    0.0000 C   0  0  0  0  0  0  0  0  0  0  0  0
    4.5400    2.5600    0.0000 C   0  0  1  0  0  0  0  0  0  0  0  0
    5.0327    3.9768    0.0000 O   0  0  0  0  0  0  0  0  0  0  0  0
    6.5060    4.2585    0.0000 C   0  0  0  0  0  0  0  0  0  0  0  0
    6.9989    5.6752    0.0000 C   0  0  0  0  0  0  0  0  0  0  0  0
    8.4731    5.9564    0.0000 C   0  0  0  0  0  0  0  0  0  0  0  0
    9.4545    4.8209    0.0000 C   0  0  0  0  0  0  0  0  0  0  0  0
    8.9616    3.4042    0.0000 C   0  0  0  0  0  0  0  0  0  0  0  0
    7.4873    3.1230    0.0000 O   0  0  0  0  0  0  0  0  0  0  0  0
    5.3600    1.3900    0.0000 C   0  0  0  0  0  0  0  0  0  0  0  0
    4.5400    0.1500    0.0000 C   0  0  0  0  0  0  0  0  0  0  0  0
    3.1000    0.6500    0.0000 C   0  0  1  0  0  0  0  0  0  0  0  0
    0.5501   -3.8800    0.0000 O   0  0  0  0  0  0  0  0  0  0  0  0
  2  1  1  1  0  0  0
  2  3  1  0  0  0  0
  3  4  1  0  0  0  0
  4  5  1  0  0  0  0
  5  6  2  0  0  0  0
  6  7  1  0  0  0  0
  7  8  1  0  0  0  0
  4  8  2  0  0  0  0
  8  9  1  0  0  0  0
 10  9  1  1  0  0  0
  2 10  1  0  0  0  0
 10 11  1  0  0  0  0
 11 12  1  0  0  0  0
 13 12  1  6  0  0  0
 13 14  1  0  0  0  0
  2 14  1  0  0  0  0
 14 15  1  1  0  0  0
 15 16  1  0  0  0  0
 16 17  1  0  0  0  0
 17 18  1  1  0  0  0
 17 19  1  0  0  0  0
 19 20  1  1  0  0  0
 20 21  1  0  0  0  0
 21 22  1  0  0  0  0
 22 23  1  0  0  0  0
 23 24  1  0  0  0  0
 24 25  1  0  0  0  0
 25 26  1  0  0  0  0
 21 26  1  0  0  0  0
 19 27  1  0  0  0  0
 27 28  1  0  0  0  0
 29 28  1  1  0  0  0
 13 29  1  0  0  0  0
 17 29  1  0  0  0  0
 30 11  1  0  0  0  0
M  END
> <InChI>
InChI=1S/C25H38N2O3/c1-24-9-8-18-16(17(24)6-7-22(24)30-23-5-3-4-10-29-23)11-21(28)19-12-20-15(14-26-27-20)13-25(18,19)2/h14,16-19,21-23,28H,3-13H2,1-2H3,(H,26,27)/t16-,17-,18-,19+,21?,22-,23?,24-,25+/m0/s1

> <InChIKey>
YKEXWTSVQASAOF-NGOYPGMHSA-N

> <SMILES>
C[C@]12CC=3C=NNC3C[C@@H]1C(C[C@@H]4[C@@H]2CC[C@]5(C)[C@@H](OC6CCCCO6)CC[C@@H]45)O

> <Synonyms>


> <PUBCHEM_CID>


> <Molecular_formula>
C25H38N2O3

> <Major_Isotope_Mass>
414.28824307599996

> <ALogP>
3.6110000000000007

> <Lipinski_Violations>
0

> <Insecticide_Likeness_Violations>
0

> <Post_Em_Herbicide_Likeness_Violations>
0

> <Metabolite_ID>
BTM00007

> <Reaction>
6-Hydroxylation of sterol

> <Reaction_ID>
BTMR0402

> <Enzyme(s)>
CYP2A6
CYP2B6
CYP2C8
CYP2C9
CYP2C19
CYP2D6
CYP3A4

> <Biosystem>
HUMAN

> <Precursor_ID>


> <Precursor_SMILES>
C[C@]12CC=3C=NNC3C[C@@H]1CC[C@@H]4[C@@H]2CC[C@]5(C)[C@@H](OC6CCCCO6)CC[C@@H]45

> <Precursor_InChI>
InChI=1S/C25H38N2O2/c1-24-11-10-20-18(19(24)8-9-22(24)29-23-5-3-4-12-28-23)7-6-17-13-21-16(15-26-27-21)14-25(17,20)2/h15,17-20,22-23H,3-14H2,1-2H3,(H,26,27)/t17-,18-,19-,20-,22-,23?,24-,25-/m0/s1

> <Precursor_InChIKey>
AGJAMJZFPDQSEW-KOTDIDPQSA-N

> <Precursor_ALogP>


> <Precursor_Major_Isotope_Mass>
398.2933

$$$$
BTM00008
  CDK     09122622432D

 30 35  0  0  1  0  0  0  0  0999 V2000
   -0.7425    1.3300    0.0000 C   0  0  0  0  0  0  0  0  0  0  0  0
   -0.7400   -0.1700    0.0000 C   0  0  2  0  0  0  0  0  0  0  0  0
   -2.0300    0.5700    0.0000 C   0  0  0  0  0  0  0  0  0  0  0  0
   -3.3900   -0.1700    0.0000 C   0  0  0  0  0  0  0  0  0  0  0  0
   -4.8300    0.3400    0.0000 C   0  0  0  0  0  0  0  0  0  0  0  0
   -5.6400   -0.9000    0.0000 N   0  0  0  0  0  0  0  0  0  0  0  0
   -4.8300   -2.1100    0.0000 N   0  0  0  0  0  0  0  0  0  0  0  0
   -3.3900   -1.6800    0.0000 C   0  0  0  0  0  0  0  0  0  0  0  0
   -2.0300   -2.3800    0.0000 C   0  0  0  0  0  0  0  0  0  0  0  0
   -0.7400   -1.6800    0.0000 C   0  0  2  0  0  0  0  0  0  0  0  0
    0.5400   -2.3800    0.0000 C   0  0  0  0  0  0  0  0  0  0  0  0
    1.7800   -1.6800    0.0000 C   0  0  0  0  0  0  0  0  0  0  0  0
    1.7800   -0.1700    0.0000 C   0  0  2  0  0  0  0  0  0  0  0  0
    0.5400    0.5700    0.0000 C   0  0  2  0  0  0  0  0  0  0  0  0
    0.5400    2.0900    0.0000 C   0  0  0  0  0  0  0  0  0  0  0  0
    1.7800    2.8700    0.0000 C   0  0  0  0  0  0  0  0  0  0  0  0
    3.1000    2.1300    0.0000 C   0  0  2  0  0  0  0  0  0  0  0  0
    3.2652    3.6209    0.0000 C   0  0  0  0  0  0  0  0  0  0  0  0
    4.5400    2.5600    0.0000 C   0  0  1  0  0  0  0  0  0  0  0  0
    5.0327    3.9768    0.0000 O   0  0  0  0  0  0  0  0  0  0  0  0
    6.5060    4.2585    0.0000 C   0  0  0  0  0  0  0  0  0  0  0  0
    6.9989    5.6752    0.0000 C   0  0  0  0  0  0  0  0  0  0  0  0
    8.4731    5.9564    0.0000 C   0  0  0  0  0  0  0  0  0  0  0  0
    9.4545    4.8209    0.0000 C   0  0  0  0  0  0  0  0  0  0  0  0
    8.9616    3.4042    0.0000 C   0  0  0  0  0  0  0  0  0  0  0  0
    7.4873    3.1230    0.0000 O   0  0  0  0  0  0  0  0  0  0  0  0
    5.3600    1.3900    0.0000 C   0  0  0  0  0  0  0  0  0  0  0  0
    4.5400    0.1500    0.0000 C   0  0  0  0  0  0  0  0  0  0  0  0
    3.1000    0.6500    0.0000 C   0  0  1  0  0  0  0  0  0  0  0  0
   -2.0428    2.0778    0.0000 O   0  0  0  0  0  0  0  0  0  0  0  0
  2  1  1  1  0  0  0
  2  3  1  0  0  0  0
  3  4  1  0  0  0  0
  4  5  1  0  0  0  0
  5  6  2  0  0  0  0
  6  7  1  0  0  0  0
  7  8  1  0  0  0  0
  4  8  2  0  0  0  0
  8  9  1  0  0  0  0
 10  9  1  1  0  0  0
  2 10  1  0  0  0  0
 10 11  1  0  0  0  0
 11 12  1  0  0  0  0
 13 12  1  6  0  0  0
 13 14  1  0  0  0  0
  2 14  1  0  0  0  0
 14 15  1  1  0  0  0
 15 16  1  0  0  0  0
 16 17  1  0  0  0  0
 17 18  1  1  0  0  0
 17 19  1  0  0  0  0
 19 20  1  1  0  0  0
 20 21  1  0  0  0  0
 21 22  1  0  0  0  0
 22 23  1  0  0  0  0
 23 24  1  0  0  0  0
 24 25  1  0  0  0  0
 25 26  1  0  0  0  0
 21 26  1  0  0  0  0
 19 27  1  0  0  0  0
 27 28  1  0  0  0  0
 29 28  1  1  0  0  0
 13 29  1  0  0  0  0
 17 29  1  0  0  0  0
 30  1  1  0  0  0  0
M  END
> <InChI>
InChI=1S/C25H38N2O3/c1-24-10-9-20-18(19(24)7-8-22(24)30-23-4-2-3-11-29-23)6-5-17-12-21-16(14-26-27-21)13-25(17,20)15-28/h14,17-20,22-23,28H,2-13,15H2,1H3,(H,26,27)/t17-,18-,19-,20-,22-,23?,24-,25+/m0/s1

> <InChIKey>
VKJUCMXGBNRPMS-CUDRURQBSA-N

> <SMILES>
C([C@]12CC=3C=NNC3C[C@@H]1CC[C@@H]4[C@@H]2CC[C@]5(C)[C@@H](OC6CCCCO6)CC[C@@H]45)O

> <Synonyms>


> <PUBCHEM_CID>


> <Molecular_formula>
C25H38N2O3

> <Major_Isotope_Mass>
414.28824307599996

> <ALogP>
3.6897000000000055

> <Lipinski_Violations>
1

> <Insecticide_Likeness_Violations>
0

> <Post_Em_Herbicide_Likeness_Violations>
0

> <Metabolite_ID>
BTM00008

> <Reaction>
Hydroxylation of methyl carbon adjacent to aliphatic ring

> <Reaction_ID>
BTMR0054

> <Enzyme(s)>
CYP2B6
CYP2C8
CYP2C9
CYP2C19
CYP2D6
CYP3A4

> <Biosystem>
HUMAN

> <Precursor_ID>


> <Precursor_SMILES>
C[C@]12CC=3C=NNC3C[C@@H]1CC[C@@H]4[C@@H]2CC[C@]5(C)[C@@H](OC6CCCCO6)CC[C@@H]45

> <Precursor_InChI>
InChI=1S/C25H38N2O2/c1-24-11-10-20-18(19(24)8-9-22(24)29-23-5-3-4-12-28-23)7-6-17-13-21-16(15-26-27-21)14-25(17,20)2/h15,17-20,22-23H,3-14H2,1-2H3,(H,26,27)/t17-,18-,19-,20-,22-,23?,24-,25-/m0/s1

> <Precursor_InChIKey>
AGJAMJZFPDQSEW-KOTDIDPQSA-N

> <Precursor_ALogP>


> <Precursor_Major_Isotope_Mass>
398.2933

$$$$
BTM00009
  CDK     09122622432D

 30 35  0  0  1  0  0  0  0  0999 V2000
   -0.7425    1.3300    0.0000 C   0  0  0  0  0  0  0  0  0  0  0  0
   -0.7400   -0.1700    0.0000 C   0  0  2  0  0  0  0  0  0  0  0  0
   -2.0300    0.5700    0.0000 C   0  0  0  0  0  0  0  0  0  0  0  0
   -3.3900   -0.1700    0.0000 C   0  0  0  0  0  0  0  0  0  0  0  0
   -4.8300    0.3400    0.0000 C   0  0  0  0  0  0  0  0  0  0  0  0
   -5.6400   -0.9000    0.0000 N   0  0  0  0  0  0  0  0  0  0  0  0
   -4.8300   -2.1100    0.0000 N   0  0  0  0  0  0  0  0  0  0  0  0
   -3.3900   -1.6800    0.0000 C   0  0  0  0  0  0  0  0  0  0  0  0
   -2.0300   -2.3800    0.0000 C   0  0  0  0  0  0  0  0  0  0  0  0
   -0.7400   -1.6800    0.0000 C   0  0  2  0  0  0  0  0  0  0  0  0
    0.5400   -2.3800    0.0000 C   0  0  0  0  0  0  0  0  0  0  0  0
    1.7800   -1.6800    0.0000 C   0  0  0  0  0  0  0  0  0  0  0  0
    1.7800   -0.1700    0.0000 C   0  0  2  0  0  0  0  0  0  0  0  0
    0.5400    0.5700    0.0000 C   0  0  2  0  0  0  0  0  0  0  0  0
    0.5400    2.0900    0.0000 C   0  0  0  0  0  0  0  0  0  0  0  0
    1.7800    2.8700    0.0000 C   0  0  0  0  0  0  0  0  0  0  0  0
    3.1000    2.1300    0.0000 C   0  0  2  0  0  0  0  0  0  0  0  0
    3.2652    3.6209    0.0000 C   0  0  0  0  0  0  0  0  0  0  0  0
    4.5400    2.5600    0.0000 C   0  0  1  0  0  0  0  0  0  0  0  0
    5.0327    3.9768    0.0000 O   0  0  0  0  0  0  0  0  0  0  0  0
    6.5060    4.2585    0.0000 C   0  0  0  0  0  0  0  0  0  0  0  0
    6.9989    5.6752    0.0000 C   0  0  0  0  0  0  0  0  0  0  0  0
    8.4731    5.9564    0.0000 C   0  0  0  0  0  0  0  0  0  0  0  0
    9.4545    4.8209    0.0000 C   0  0  0  0  0  0  0  0  0  0  0  0
    8.9616    3.4042    0.0000 C   0  0  0  0  0  0  0  0  0  0  0  0
    7.4873    3.1230    0.0000 O   0  0  0  0  0  0  0  0  0  0  0  0
    5.3600    1.3900    0.0000 C   0  0  0  0  0  0  0  0  0  0  0  0
    4.5400    0.1500    0.0000 C   0  0  0  0  0  0  0  0  0  0  0  0
    3.1000    0.6500    0.0000 C   0  0  1  0  0  0  0  0  0  0  0  0
    2.0567    4.5094    0.0000 O   0  0  0  0  0  0  0  0  0  0  0  0
  2  1  1  1  0  0  0
  2  3  1  0  0  0  0
  3  4  1  0  0  0  0
  4  5  1  0  0  0  0
  5  6  2  0  0  0  0
  6  7  1  0  0  0  0
  7  8  1  0  0  0  0
  4  8  2  0  0  0  0
  8  9  1  0  0  0  0
 10  9  1  1  0  0  0
  2 10  1  0  0  0  0
 10 11  1  0  0  0  0
 11 12  1  0  0  0  0
 13 12  1  6  0  0  0
 13 14  1  0  0  0  0
  2 14  1  0  0  0  0
 14 15  1  1  0  0  0
 15 16  1  0  0  0  0
 16 17  1  0  0  0  0
 17 18  1  1  0  0  0
 17 19  1  0  0  0  0
 19 20  1  1  0  0  0
 20 21  1  0  0  0  0
 21 22  1  0  0  0  0
 22 23  1  0  0  0  0
 23 24  1  0  0  0  0
 24 25  1  0  0  0  0
 25 26  1  0  0  0  0
 21 26  1  0  0  0  0
 19 27  1  0  0  0  0
 27 28  1  0  0  0  0
 29 28  1  1  0  0  0
 13 29  1  0  0  0  0
 17 29  1  0  0  0  0
 30 18  1  0  0  0  0
M  END
> <InChI>
InChI=1S/C25H38N2O3/c1-24-13-16-14-26-27-21(16)12-17(24)5-6-18-19(24)9-10-25(15-28)20(18)7-8-22(25)30-23-4-2-3-11-29-23/h14,17-20,22-23,28H,2-13,15H2,1H3,(H,26,27)/t17-,18+,19-,20-,22-,23?,24-,25+/m0/s1

> <InChIKey>
KHSWIXMEBFQKKZ-FCYPDSCOSA-N

> <SMILES>
C[C@]12CC=3C=NNC3C[C@@H]1CC[C@@H]4[C@@H]2CC[C@]5(CO)[C@@H](OC6CCCCO6)CC[C@@H]45

> <Synonyms>


> <PUBCHEM_CID>


> <Molecular_formula>
C25H38N2O3

> <Major_Isotope_Mass>
414.28824307599996

> <ALogP>
3.6897000000000055

> <Lipinski_Violations>
1

> <Insecticide_Likeness_Violations>
0

> <Post_Em_Herbicide_Likeness_Violations>
0

> <Metabolite_ID>
BTM00009

> <Reaction>
Hydroxylation of methyl carbon adjacent to aliphatic ring

> <Reaction_ID>
BTMR0054

> <Enzyme(s)>
CYP2B6
CYP2C8
CYP2C9
CYP2C19
CYP2D6
CYP3A4

> <Biosystem>
HUMAN

> <Precursor_ID>


> <Precursor_SMILES>
C[C@]12CC=3C=NNC3C[C@@H]1CC[C@@H]4[C@@H]2CC[C@]5(C)[C@@H](OC6CCCCO6)CC[C@@H]45

> <Precursor_InChI>
InChI=1S/C25H38N2O2/c1-24-11-10-20-18(19(24)8-9-22(24)29-23-5-3-4-12-28-23)7-6-17-13-21-16(15-26-27-21)14-25(17,20)2/h15,17-20,22-23H,3-14H2,1-2H3,(H,26,27)/t17-,18-,19-,20-,22-,23?,24-,25-/m0/s1

> <Precursor_InChIKey>
AGJAMJZFPDQSEW-KOTDIDPQSA-N

> <Precursor_ALogP>


> <Precursor_Major_Isotope_Mass>
398.2933

$$$$
