BTM00001
  CDK     09122622222D

 23 26  0  0  1  0  0  0  0  0999 V2000
   -1.6807    1.2000    0.0000 C   0  0  0  0  0  0  0  0  0  0  0  0
   -1.6900   -0.3000    0.0000 C   0  0  2  0  0  0  0  0  0  0  0  0
   -2.9800    0.4600    0.0000 C   0  0  0  0  0  0  0  0  0  0  0  0
   -4.2900   -0.3000    0.0000 O   0  0  0  0  0  0  0  0  0  0  0  0
   -4.2900   -1.8000    0.0000 C   0  0  0  0  0  0  0  0  0  0  0  0
   -5.5877   -2.5524    0.0000 O   0  0  0  0  0  0  0  0  0  0  0  0
   -2.9800   -2.5500    0.0000 C   0  0  0  0  0  0  0  0  0  0  0  0
   -1.7000   -1.8000    0.0000 C   0  0  2  0  0  0  0  0  0  0  0  0
   -0.3900   -2.5600    0.0000 C   0  0  0  0  0  0  0  0  0  0  0  0
    0.9200   -1.8100    0.0000 C   0  0  0  0  0  0  0  0  0  0  0  0
    0.9200   -0.3100    0.0000 C   0  0  2  0  0  0  0  0  0  0  0  0
   -0.3800    0.4500    0.0000 C   0  0  2  0  0  0  0  0  0  0  0  0
   -0.3600    1.9500    0.0000 C   0  0  0  0  0  0  0  0  0  0  0  0
    0.9400    2.6800    0.0000 C   0  0  0  0  0  0  0  0  0  0  0  0
    2.2200    1.9200    0.0000 C   0  0  1  0  0  0  0  0  0  0  0  0
    2.3834    3.4111    0.0000 C   0  0  0  0  0  0  0  0  0  0  0  0
    2.2200    0.4200    0.0000 C   0  0  1  0  0  0  0  0  0  0  0  0
    3.6500   -0.0400    0.0000 C   0  0  0  0  0  0  0  0  0  0  0  0
    4.5300    1.1700    0.0000 C   0  0  0  0  0  0  0  0  0  0  0  0
    3.6500    2.3900    0.0000 C   0  0  1  0  0  0  0  0  0  0  0  0
    4.9499    3.1385    0.0000 C   0  0  0  0  0  0  0  0  0  0  0  0
    3.7108    0.8912    0.0000 O   0  0  0  0  0  0  0  0  0  0  0  0
   -1.6495    2.7164    0.0000 O   0  0  0  0  0  0  0  0  0  0  0  0
  2  1  1  1  0  0  0
  2  3  1  0  0  0  0
  3  4  1  0  0  0  0
  4  5  1  0  0  0  0
  5  6  2  0  0  0  0
  5  7  1  0  0  0  0
  8  7  1  1  0  0  0
  2  8  1  0  0  0  0
  8  9  1  0  0  0  0
  9 10  1  0  0  0  0
 11 10  1  6  0  0  0
 11 12  1  0  0  0  0
  2 12  1  0  0  0  0
 12 13  1  1  0  0  0
 13 14  1  0  0  0  0
 14 15  1  0  0  0  0
 15 16  1  1  0  0  0
 15 17  1  0  0  0  0
 11 17  1  0  0  0  0
 17 18  1  1  0  0  0
 18 19  1  0  0  0  0
 20 19  1  6  0  0  0
 15 20  1  0  0  0  0
 20 21  1  0  0  0  0
 20 22  1  1  0  0  0
 23 13  1  0  0  0  0
M  END
> <InChI>
InChI=1S/C19H30O4/c1-17-10-23-15(21)8-11(17)4-5-12-13-6-7-19(3,22)18(13,2)9-14(20)16(12)17/h11-14,16,20,22H,4-10H2,1-3H3/t11-,12-,13-,14?,16+,17-,18-,19-/m0/s1

> <InChIKey>
VLVDTTIYWGALHB-JYUWDUJWSA-N

> <SMILES>
C[C@]12COC(=O)C[C@@H]1CC[C@@H]3[C@@H]2C(C[C@@]4(C)[C@H]3CC[C@]4(C)O)O

> <Synonyms>


> <PUBCHEM_CID>


> <Molecular_formula>
C19H30O4

> <Major_Isotope_Mass>
322.21440944

> <ALogP>
1.8908000000000003

> <Lipinski_Violations>
0

> <Insecticide_Likeness_Violations>
0

> <Post_Em_Herbicide_Likeness_Violations>
0

> <Metabolite_ID>
BTM00001

> <Reaction>
11-beta-Hydroxylation of sterol

> <Reaction_ID>
BTMR0406

> <Enzyme(s)>
EC 1.14.15.4

> <Biosystem>
HUMAN

> <Precursor_ID>


> <Precursor_SMILES>
C[C@]12COC(=O)C[C@@H]1CC[C@@H]3[C@@H]2CC[C@@]4(C)[C@H]3CC[C@]4(C)O

> <Precursor_InChI>
InChI=1S/C19H30O3/c1-17-11-22-16(20)10-12(17)4-5-13-14(17)6-8-18(2)15(13)7-9-19(18,3)21/h12-15,21H,4-11H2,1-3H3/t12-,13+,14-,15-,17-,18-,19-/m0/s1

> <Precursor_InChIKey>
QSLJIVKCVHQPLV-PEMPUTJUSA-N

> <Precursor_ALogP>


> <Precursor_Major_Isotope_Mass>
306.2194

$$$$
BTM00002
  CDK     09122622222D

 34 38  0  0  1  0  0  0  0  0999 V2000
   -1.4850    0.7617    0.0000 C   0  0  0  0  0  0  0  0  0  0  0  0
   -1.4943   -0.7383    0.0000 C   0  0  2  0  0  0  0  0  0  0  0  0
   -2.7843    0.0217    0.0000 C   0  0  0  0  0  0  0  0  0  0  0  0
   -4.0943   -0.7383    0.0000 O   0  0  0  0  0  0  0  0  0  0  0  0
   -4.0943   -2.2383    0.0000 C   0  0  0  0  0  0  0  0  0  0  0  0
   -5.3920   -2.9906    0.0000 O   0  0  0  0  0  0  0  0  0  0  0  0
   -2.7843   -2.9883    0.0000 C   0  0  0  0  0  0  0  0  0  0  0  0
   -1.5043   -2.2383    0.0000 C   0  0  2  0  0  0  0  0  0  0  0  0
   -0.1943   -2.9983    0.0000 C   0  0  0  0  0  0  0  0  0  0  0  0
    1.1157   -2.2483    0.0000 C   0  0  0  0  0  0  0  0  0  0  0  0
    1.1157   -0.7483    0.0000 C   0  0  2  0  0  0  0  0  0  0  0  0
   -0.1843    0.0117    0.0000 C   0  0  2  0  0  0  0  0  0  0  0  0
   -0.1643    1.5117    0.0000 C   0  0  0  0  0  0  0  0  0  0  0  0
    1.1357    2.2417    0.0000 C   0  0  0  0  0  0  0  0  0  0  0  0
    2.4157    1.4817    0.0000 C   0  0  1  0  0  0  0  0  0  0  0  0
    2.5791    2.9728    0.0000 C   0  0  0  0  0  0  0  0  0  0  0  0
    2.4157   -0.0183    0.0000 C   0  0  1  0  0  0  0  0  0  0  0  0
    3.8457   -0.4783    0.0000 C   0  0  0  0  0  0  0  0  0  0  0  0
    4.7257    0.7317    0.0000 C   0  0  0  0  0  0  0  0  0  0  0  0
    3.8457    1.9517    0.0000 C   0  0  1  0  0  0  0  0  0  0  0  0
    5.1456    2.7002    0.0000 C   0  0  0  0  0  0  0  0  0  0  0  0
    3.0384    3.7596    0.0000 O   0  0  0  0  0  0  0  0  0  0  0  0
    1.8245    6.4979    0.0000 O   0  0  0  0  0  0  0  0  0  0  0  0
    3.3158    6.3367    0.0000 C   0  0  0  0  0  0  0  0  0  0  0  0
    4.2155    7.5658    0.0000 C   0  0  0  0  0  0  0  0  0  0  0  0
    3.6131    8.9396    0.0000 O   0  0  0  0  0  0  0  0  0  0  0  0
    5.7118    7.3968    0.0000 C   0  0  0  0  0  0  0  0  0  0  0  0
    6.5996    8.6059    0.0000 O   0  0  0  0  0  0  0  0  0  0  0  0
    6.3147    6.0342    0.0000 C   0  0  0  0  0  0  0  0  0  0  0  0
    5.4293    4.8223    0.0000 O   0  0  0  0  0  0  0  0  0  0  0  0
    3.9187    4.9741    0.0000 C   0  0  0  0  0  0  0  0  0  0  0  0
    7.8060    5.8737    0.0000 C   0  0  0  0  0  0  0  0  0  0  0  0
    8.6908    7.0850    0.0000 O   0  0  0  0  0  0  0  0  0  0  0  0
    8.4127    4.5018    0.0000 O   0  0  0  0  0  0  0  0  0  0  0  0
  2  1  1  1  0  0  0
  2  3  1  0  0  0  0
  3  4  1  0  0  0  0
  4  5  1  0  0  0  0
  5  6  2  0  0  0  0
  5  7  1  0  0  0  0
  8  7  1  1  0  0  0
  2  8  1  0  0  0  0
  8  9  1  0  0  0  0
  9 10  1  0  0  0  0
 11 10  1  6  0  0  0
 11 12  1  0  0  0  0
  2 12  1  0  0  0  0
 12 13  1  1  0  0  0
 13 14  1  0  0  0  0
 14 15  1  0  0  0  0
 15 16  1  1  0  0  0
 15 17  1  0  0  0  0
 11 17  1  0  0  0  0
 17 18  1  1  0  0  0
 18 19  1  0  0  0  0
 19 20  1  0  0  0  0
 15 20  1  0  0  0  0
 20 21  1  6  0  0  0
 20 22  1  1  0  0  0
 23 24  1  0  0  0  0
 24 25  1  0  0  0  0
 25 26  1  0  0  0  0
 25 27  1  0  0  0  0
 27 28  1  0  0  0  0
 27 29  1  0  0  0  0
 29 30  1  0  0  0  0
 30 31  1  0  0  0  0
 24 31  1  0  0  0  0
 31 22  1  0  0  0  0
 29 32  1  0  0  0  0
 32 33  1  0  0  0  0
 32 34  2  0  0  0  0
M  END
> <InChI>
InChI=1S/C25H38O9/c1-23-11-32-16(26)10-12(23)4-5-13-14(23)6-8-24(2)15(13)7-9-25(24,3)34-22-19(29)17(27)18(28)20(33-22)21(30)31/h12-15,17-20,22,27-29H,4-11H2,1-3H3,(H,30,31)/t12-,13+,14-,15-,17?,18?,19?,20?,22?,23-,24-,25-/m0/s1

> <InChIKey>
IJDLIRDVKDOCAC-PDSXDZBZSA-N

> <SMILES>
C[C@]12COC(=O)C[C@@H]1CC[C@@H]3[C@@H]2CC[C@@]4(C)[C@H]3CC[C@]4(C)OC5OC(C(C(C5O)O)O)C(O)=O

> <Synonyms>


> <PUBCHEM_CID>


> <Molecular_formula>
C25H38O9

> <Major_Isotope_Mass>
482.251582796

> <ALogP>
1.5221999999999987

> <Lipinski_Violations>
0

> <Insecticide_Likeness_Violations>
1

> <Post_Em_Herbicide_Likeness_Violations>
1

> <Metabolite_ID>
BTM00002

> <Reaction>
17-OH-Glucuronidation of sterol

> <Reaction_ID>
BTMR0163

> <Enzyme(s)>
EC 2.4.1.17

> <Biosystem>
HUMAN

> <Precursor_ID>


> <Precursor_SMILES>
C[C@]12COC(=O)C[C@@H]1CC[C@@H]3[C@@H]2CC[C@@]4(C)[C@H]3CC[C@]4(C)O

> <Precursor_InChI>
InChI=1S/C19H30O3/c1-17-11-22-16(20)10-12(17)4-5-13-14(17)6-8-18(2)15(13)7-9-19(18,3)21/h12-15,21H,4-11H2,1-3H3/t12-,13+,14-,15-,17-,18-,19-/m0/s1

> <Precursor_InChIKey>
QSLJIVKCVHQPLV-PEMPUTJUSA-N

> <Precursor_ALogP>


> <Precursor_Major_Isotope_Mass>
306.2194

$$$$
