BTM00001
  CDK     09122622222D

 22 25  0  0  1  0  0  0  0  0999 V2000
    5.3394    3.7714    0.0000 C   0  0  0  0  0  0  0  0  0  0  0  0
    5.3384    2.2714    0.0000 C   0  0  0  0  0  0  0  0  0  0  0  0
    4.0389    1.5223    0.0000 C   0  0  2  0  0  0  0  0  0  0  0  0
    3.0424    3.7714    0.0000 O   0  0  0  0  0  0  0  0  0  0  0  0
    4.9189    0.3123    0.0000 C   0  0  0  0  0  0  0  0  0  0  0  0
    4.0389   -0.8977    0.0000 C   0  0  0  0  0  0  0  0  0  0  0  0
    2.6089   -0.4377    0.0000 C   0  0  1  0  0  0  0  0  0  0  0  0
    1.3089   -1.1877    0.0000 C   0  0  2  0  0  0  0  0  0  0  0  0
    1.3089   -2.6877    0.0000 C   0  0  0  0  0  0  0  0  0  0  0  0
    0.0089   -3.4377    0.0000 C   0  0  0  0  0  0  0  0  0  0  0  0
   -1.2911   -2.6877    0.0000 C   0  0  0  0  0  0  0  0  0  0  0  0
   -2.5911   -3.4377    0.0000 C   0  0  0  0  0  0  0  0  0  0  0  0
   -3.8911   -2.6877    0.0000 C   0  0  0  0  0  0  0  0  0  0  0  0
   -5.1900   -3.4379    0.0000 O   0  0  0  0  0  0  0  0  0  0  0  0
   -3.8911   -1.1877    0.0000 C   0  0  0  0  0  0  0  0  0  0  0  0
   -2.5911   -0.4377    0.0000 C   0  0  0  0  0  0  0  0  0  0  0  0
   -1.2911   -1.1877    0.0000 C   0  0  2  0  0  0  0  0  0  0  0  0
    0.0089   -0.4377    0.0000 C   0  0  1  0  0  0  0  0  0  0  0  0
    0.0089    1.0623    0.0000 C   0  0  0  0  0  0  0  0  0  0  0  0
    1.3089    1.8123    0.0000 C   0  0  0  0  0  0  0  0  0  0  0  0
    2.6089    1.0623    0.0000 C   0  0  2  0  0  0  0  0  0  0  0  0
    3.6075   -0.0570    0.0000 C   0  0  0  0  0  0  0  0  0  0  0  0
  1  2  1  0  0  0  0
  3  2  1  6  0  0  0
  3  4  1  1  0  0  0
  3  5  1  0  0  0  0
  5  6  1  0  0  0  0
  7  6  1  1  0  0  0
  7  8  1  0  0  0  0
  8  9  1  6  0  0  0
  9 10  1  0  0  0  0
 10 11  1  0  0  0  0
 11 12  2  0  0  0  0
 12 13  1  0  0  0  0
 13 14  1  0  0  0  0
 13 15  1  0  0  0  0
 15 16  1  0  0  0  0
 17 16  1  6  0  0  0
 11 17  1  0  0  0  0
 17 18  1  0  0  0  0
  8 18  1  0  0  0  0
 18 19  1  1  0  0  0
 19 20  1  0  0  0  0
 20 21  1  0  0  0  0
  7 21  1  0  0  0  0
  3 21  1  0  0  0  0
 21 22  1  1  0  0  0
M  END
> <InChI>
InChI=1S/C20H32O2/c1-3-20(22)11-9-18-17-6-4-13-12-14(21)5-7-15(13)16(17)8-10-19(18,20)2/h12,14-18,21-22H,3-11H2,1-2H3/t14?,15-,16+,17+,18-,19-,20-/m0/s1

> <InChIKey>
WITUGZWVTJUKIN-BWAMUERPSA-N

> <SMILES>
CC[C@]1(O)CC[C@H]2[C@@H]3CCC4=CC(O)CC[C@@H]4[C@H]3CC[C@@]21C

> <Synonyms>


> <PUBCHEM_CID>


> <Molecular_formula>
C20H32O2

> <Major_Isotope_Mass>
304.240230264

> <ALogP>
3.895299999999997

> <Lipinski_Violations>
0

> <Insecticide_Likeness_Violations>
0

> <Post_Em_Herbicide_Likeness_Violations>
0

> <Metabolite_ID>
BTM00001

> <Reaction>
Reduction of carbonyl

> <Reaction_ID>
BTMR0368

> <Enzyme(s)>
EC 1.1.1.184

> <Biosystem>
HUMAN

> <Precursor_ID>


> <Precursor_SMILES>
CC[C@]1(O)CC[C@H]2[C@@H]3CCC4=CC(=O)CC[C@@H]4[C@H]3CC[C@@]21C

> <Precursor_InChI>
InChI=1S/C20H30O2/c1-3-20(22)11-9-18-17-6-4-13-12-14(21)5-7-15(13)16(17)8-10-19(18,20)2/h12,15-18,22H,3-11H2,1-2H3/t15-,16+,17+,18-,19-,20-/m0/s1

> <Precursor_InChIKey>
ZDHCJEIGTNNEMY-XGXHKTLJSA-N

> <Precursor_ALogP>


> <Precursor_Major_Isotope_Mass>
302.2245

$$$$
BTM00002
  CDK     09122622222D

 23 26  0  0  1  0  0  0  0  0999 V2000
    6.6370    1.5206    0.0000 C   0  0  0  0  0  0  0  0  0  0  0  0
    5.3384    2.2714    0.0000 C   0  0  0  0  0  0  0  0  0  0  0  0
    4.0389    1.5223    0.0000 C   0  0  2  0  0  0  0  0  0  0  0  0
    3.0424    3.7714    0.0000 O   0  0  0  0  0  0  0  0  0  0  0  0
    4.9189    0.3123    0.0000 C   0  0  0  0  0  0  0  0  0  0  0  0
    4.0389   -0.8977    0.0000 C   0  0  0  0  0  0  0  0  0  0  0  0
    2.6089   -0.4377    0.0000 C   0  0  1  0  0  0  0  0  0  0  0  0
    1.3089   -1.1877    0.0000 C   0  0  2  0  0  0  0  0  0  0  0  0
    1.3089   -2.6877    0.0000 C   0  0  0  0  0  0  0  0  0  0  0  0
    0.0089   -3.4377    0.0000 C   0  0  0  0  0  0  0  0  0  0  0  0
   -1.2911   -2.6877    0.0000 C   0  0  0  0  0  0  0  0  0  0  0  0
   -2.5911   -3.4377    0.0000 C   0  0  0  0  0  0  0  0  0  0  0  0
   -3.8911   -2.6877    0.0000 C   0  0  0  0  0  0  0  0  0  0  0  0
   -5.1900   -3.4379    0.0000 O   0  0  0  0  0  0  0  0  0  0  0  0
   -3.8911   -1.1877    0.0000 C   0  0  0  0  0  0  0  0  0  0  0  0
   -2.5911   -0.4377    0.0000 C   0  0  0  0  0  0  0  0  0  0  0  0
   -1.2911   -1.1877    0.0000 C   0  0  2  0  0  0  0  0  0  0  0  0
    0.0089   -0.4377    0.0000 C   0  0  1  0  0  0  0  0  0  0  0  0
    0.0089    1.0623    0.0000 C   0  0  0  0  0  0  0  0  0  0  0  0
    1.3089    1.8123    0.0000 C   0  0  0  0  0  0  0  0  0  0  0  0
    2.6089    1.0623    0.0000 C   0  0  2  0  0  0  0  0  0  0  0  0
    3.6075   -0.0570    0.0000 C   0  0  0  0  0  0  0  0  0  0  0  0
   -1.2900    1.8125    0.0000 O   0  0  0  0  0  0  0  0  0  0  0  0
  1  2  1  0  0  0  0
  3  2  1  6  0  0  0
  3  4  1  1  0  0  0
  3  5  1  0  0  0  0
  5  6  1  0  0  0  0
  7  6  1  1  0  0  0
  7  8  1  0  0  0  0
  8  9  1  6  0  0  0
  9 10  1  0  0  0  0
 10 11  1  0  0  0  0
 11 12  2  0  0  0  0
 12 13  1  0  0  0  0
 13 14  2  0  0  0  0
 13 15  1  0  0  0  0
 15 16  1  0  0  0  0
 17 16  1  6  0  0  0
 11 17  1  0  0  0  0
 17 18  1  0  0  0  0
  8 18  1  0  0  0  0
 18 19  1  1  0  0  0
 19 20  1  0  0  0  0
 20 21  1  0  0  0  0
  7 21  1  0  0  0  0
  3 21  1  0  0  0  0
 21 22  1  1  0  0  0
 23 19  1  0  0  0  0
M  END
> <InChI>
InChI=1S/C20H30O3/c1-3-20(23)9-8-16-15-6-4-12-10-13(21)5-7-14(12)18(15)17(22)11-19(16,20)2/h10,14-18,22-23H,3-9,11H2,1-2H3/t14-,15-,16-,17?,18+,19-,20-/m0/s1

> <InChIKey>
XHHXXCMABMVFST-YJXKPIRBSA-N

> <SMILES>
CC[C@]1(O)CC[C@H]2[C@@H]3CCC4=CC(=O)CC[C@@H]4[C@H]3C(C[C@@]21C)O

> <Synonyms>


> <PUBCHEM_CID>


> <Molecular_formula>
C20H30O3

> <Major_Isotope_Mass>
318.21949481999997

> <ALogP>
2.686399999999998

> <Lipinski_Violations>
0

> <Insecticide_Likeness_Violations>
0

> <Post_Em_Herbicide_Likeness_Violations>
0

> <Metabolite_ID>
BTM00002

> <Reaction>
11-beta-Hydroxylation of sterol

> <Reaction_ID>
BTMR0406

> <Enzyme(s)>
EC 1.14.15.4

> <Biosystem>
HUMAN

> <Precursor_ID>


> <Precursor_SMILES>
CC[C@]1(O)CC[C@H]2[C@@H]3CCC4=CC(=O)CC[C@@H]4[C@H]3CC[C@@]21C

> <Precursor_InChI>
InChI=1S/C20H30O2/c1-3-20(22)11-9-18-17-6-4-13-12-14(21)5-7-15(13)16(17)8-10-19(18,20)2/h12,15-18,22H,3-11H2,1-2H3/t15-,16+,17+,18-,19-,20-/m0/s1

> <Precursor_InChIKey>
ZDHCJEIGTNNEMY-XGXHKTLJSA-N

> <Precursor_ALogP>


> <Precursor_Major_Isotope_Mass>
302.2245

$$$$
BTM00003
  CDK     09122622222D

 34 38  0  0  1  0  0  0  0  0999 V2000
    6.1938    1.5887    0.0000 C   0  0  0  0  0  0  0  0  0  0  0  0
    4.8956    2.3402    0.0000 C   0  0  0  0  0  0  0  0  0  0  0  0
    3.5957    1.5917    0.0000 C   0  0  2  0  0  0  0  0  0  0  0  0
    2.7884    3.3996    0.0000 O   0  0  0  0  0  0  0  0  0  0  0  0
    4.4757    0.3717    0.0000 C   0  0  0  0  0  0  0  0  0  0  0  0
    3.5957   -0.8383    0.0000 C   0  0  0  0  0  0  0  0  0  0  0  0
    2.1657   -0.3783    0.0000 C   0  0  1  0  0  0  0  0  0  0  0  0
    0.8657   -1.1283    0.0000 C   0  0  2  0  0  0  0  0  0  0  0  0
    0.8657   -2.6283    0.0000 C   0  0  0  0  0  0  0  0  0  0  0  0
   -0.4343   -3.3783    0.0000 C   0  0  0  0  0  0  0  0  0  0  0  0
   -1.7343   -2.6283    0.0000 C   0  0  0  0  0  0  0  0  0  0  0  0
   -3.0343   -3.3783    0.0000 C   0  0  0  0  0  0  0  0  0  0  0  0
   -4.3343   -2.6283    0.0000 C   0  0  0  0  0  0  0  0  0  0  0  0
   -5.6332   -3.3785    0.0000 O   0  0  0  0  0  0  0  0  0  0  0  0
   -4.3343   -1.1283    0.0000 C   0  0  0  0  0  0  0  0  0  0  0  0
   -3.0343   -0.3783    0.0000 C   0  0  0  0  0  0  0  0  0  0  0  0
   -1.7343   -1.1283    0.0000 C   0  0  2  0  0  0  0  0  0  0  0  0
   -0.4343   -0.3783    0.0000 C   0  0  1  0  0  0  0  0  0  0  0  0
   -0.4343    1.1217    0.0000 C   0  0  0  0  0  0  0  0  0  0  0  0
    0.8657    1.8717    0.0000 C   0  0  0  0  0  0  0  0  0  0  0  0
    2.1657    1.1217    0.0000 C   0  0  2  0  0  0  0  0  0  0  0  0
    2.3197    2.6138    0.0000 C   0  0  0  0  0  0  0  0  0  0  0  0
    1.5745    6.1379    0.0000 O   0  0  0  0  0  0  0  0  0  0  0  0
    3.0658    5.9767    0.0000 C   0  0  0  0  0  0  0  0  0  0  0  0
    3.9655    7.2058    0.0000 C   0  0  0  0  0  0  0  0  0  0  0  0
    3.3631    8.5796    0.0000 O   0  0  0  0  0  0  0  0  0  0  0  0
    5.4618    7.0368    0.0000 C   0  0  0  0  0  0  0  0  0  0  0  0
    6.3496    8.2459    0.0000 O   0  0  0  0  0  0  0  0  0  0  0  0
    6.0647    5.6742    0.0000 C   0  0  0  0  0  0  0  0  0  0  0  0
    5.1793    4.4623    0.0000 O   0  0  0  0  0  0  0  0  0  0  0  0
    3.6687    4.6141    0.0000 C   0  0  0  0  0  0  0  0  0  0  0  0
    7.5560    5.5137    0.0000 C   0  0  0  0  0  0  0  0  0  0  0  0
    8.4408    6.7250    0.0000 O   0  0  0  0  0  0  0  0  0  0  0  0
    8.1627    4.1418    0.0000 O   0  0  0  0  0  0  0  0  0  0  0  0
  1  2  1  0  0  0  0
  3  2  1  6  0  0  0
  3  4  1  1  0  0  0
  3  5  1  0  0  0  0
  5  6  1  0  0  0  0
  7  6  1  1  0  0  0
  7  8  1  0  0  0  0
  8  9  1  6  0  0  0
  9 10  1  0  0  0  0
 10 11  1  0  0  0  0
 11 12  2  0  0  0  0
 12 13  1  0  0  0  0
 13 14  2  0  0  0  0
 13 15  1  0  0  0  0
 15 16  1  0  0  0  0
 17 16  1  6  0  0  0
 11 17  1  0  0  0  0
 17 18  1  0  0  0  0
  8 18  1  0  0  0  0
 18 19  1  1  0  0  0
 19 20  1  0  0  0  0
 20 21  1  0  0  0  0
  7 21  1  0  0  0  0
  3 21  1  0  0  0  0
 21 22  1  1  0  0  0
 23 24  1  0  0  0  0
 24 25  1  0  0  0  0
 25 26  1  0  0  0  0
 25 27  1  0  0  0  0
 27 28  1  0  0  0  0
 27 29  1  0  0  0  0
 29 30  1  0  0  0  0
 30 31  1  0  0  0  0
 24 31  1  0  0  0  0
 31  4  1  0  0  0  0
 29 32  1  0  0  0  0
 32 33  1  0  0  0  0
 32 34  2  0  0  0  0
M  END
> <InChI>
InChI=1S/C26H38O8/c1-3-26(34-24-21(30)19(28)20(29)22(33-24)23(31)32)11-9-18-17-6-4-13-12-14(27)5-7-15(13)16(17)8-10-25(18,26)2/h12,15-22,24,28-30H,3-11H2,1-2H3,(H,31,32)/t15-,16+,17+,18-,19?,20?,21?,22?,24?,25-,26-/m0/s1

> <InChIKey>
BNAHQGCIDOSSKW-CDEBJCKQSA-N

> <SMILES>
CC[C@]1(OC2OC(C(C(C2O)O)O)C(O)=O)CC[C@H]3[C@@H]4CCC5=CC(=O)CC[C@@H]5[C@H]4CC[C@@]31C

> <Synonyms>


> <PUBCHEM_CID>


> <Molecular_formula>
C26H38O8

> <Major_Isotope_Mass>
478.256668176

> <ALogP>
2.317799999999996

> <Lipinski_Violations>
0

> <Insecticide_Likeness_Violations>
1

> <Post_Em_Herbicide_Likeness_Violations>
1

> <Metabolite_ID>
BTM00003

> <Reaction>
17-OH-Glucuronidation of sterol

> <Reaction_ID>
BTMR0163

> <Enzyme(s)>
EC 2.4.1.17

> <Biosystem>
HUMAN

> <Precursor_ID>


> <Precursor_SMILES>
CC[C@]1(O)CC[C@H]2[C@@H]3CCC4=CC(=O)CC[C@@H]4[C@H]3CC[C@@]21C

> <Precursor_InChI>
InChI=1S/C20H30O2/c1-3-20(22)11-9-18-17-6-4-13-12-14(21)5-7-15(13)16(17)8-10-19(18,20)2/h12,15-18,22H,3-11H2,1-2H3/t15-,16+,17+,18-,19-,20-/m0/s1

> <Precursor_InChIKey>
ZDHCJEIGTNNEMY-XGXHKTLJSA-N

> <Precursor_ALogP>


> <Precursor_Major_Isotope_Mass>
302.2245

$$$$
BTM00004
  CDK     09122622222D

 23 26  0  0  1  0  0  0  0  0999 V2000
    5.3394    3.7714    0.0000 C   0  0  0  0  0  0  0  0  0  0  0  0
    5.3384    2.2714    0.0000 C   0  0  0  0  0  0  0  0  0  0  0  0
    4.0389    1.5223    0.0000 C   0  0  2  0  0  0  0  0  0  0  0  0
    3.0424    3.7714    0.0000 O   0  0  0  0  0  0  0  0  0  0  0  0
    4.9189    0.3123    0.0000 C   0  0  0  0  0  0  0  0  0  0  0  0
    4.0389   -0.8977    0.0000 C   0  0  0  0  0  0  0  0  0  0  0  0
    2.6089   -0.4377    0.0000 C   0  0  1  0  0  0  0  0  0  0  0  0
    1.3089   -1.1877    0.0000 C   0  0  2  0  0  0  0  0  0  0  0  0
    1.3089   -2.6877    0.0000 C   0  0  0  0  0  0  0  0  0  0  0  0
    0.0089   -3.4377    0.0000 C   0  0  0  0  0  0  0  0  0  0  0  0
   -1.2911   -2.6877    0.0000 C   0  0  0  0  0  0  0  0  0  0  0  0
   -2.5911   -3.4377    0.0000 C   0  0  0  0  0  0  0  0  0  0  0  0
   -3.8911   -2.6877    0.0000 C   0  0  0  0  0  0  0  0  0  0  0  0
   -5.1900   -3.4379    0.0000 O   0  0  0  0  0  0  0  0  0  0  0  0
   -3.8911   -1.1877    0.0000 C   0  0  0  0  0  0  0  0  0  0  0  0
   -2.5911   -0.4377    0.0000 C   0  0  0  0  0  0  0  0  0  0  0  0
   -1.2911   -1.1877    0.0000 C   0  0  2  0  0  0  0  0  0  0  0  0
    0.0089   -0.4377    0.0000 C   0  0  1  0  0  0  0  0  0  0  0  0
    0.0089    1.0623    0.0000 C   0  0  0  0  0  0  0  0  0  0  0  0
    1.3089    1.8123    0.0000 C   0  0  0  0  0  0  0  0  0  0  0  0
    2.6089    1.0623    0.0000 C   0  0  2  0  0  0  0  0  0  0  0  0
    3.6075   -0.0570    0.0000 C   0  0  0  0  0  0  0  0  0  0  0  0
    6.4189    0.3123    0.0000 O   0  0  0  0  0  0  0  0  0  0  0  0
  1  2  1  0  0  0  0
  3  2  1  6  0  0  0
  3  4  1  1  0  0  0
  3  5  1  0  0  0  0
  5  6  1  0  0  0  0
  7  6  1  1  0  0  0
  7  8  1  0  0  0  0
  8  9  1  6  0  0  0
  9 10  1  0  0  0  0
 10 11  1  0  0  0  0
 11 12  2  0  0  0  0
 12 13  1  0  0  0  0
 13 14  2  0  0  0  0
 13 15  1  0  0  0  0
 15 16  1  0  0  0  0
 17 16  1  6  0  0  0
 11 17  1  0  0  0  0
 17 18  1  0  0  0  0
  8 18  1  0  0  0  0
 18 19  1  1  0  0  0
 19 20  1  0  0  0  0
 20 21  1  0  0  0  0
  7 21  1  0  0  0  0
  3 21  1  0  0  0  0
 21 22  1  1  0  0  0
 23  5  1  0  0  0  0
M  END
> <InChI>
InChI=1S/C20H30O3/c1-3-20(23)18(22)11-17-16-6-4-12-10-13(21)5-7-14(12)15(16)8-9-19(17,20)2/h10,14-18,22-23H,3-9,11H2,1-2H3/t14-,15+,16+,17-,18?,19-,20-/m0/s1

> <InChIKey>
BMZOEOKDCDUODL-LUEHTCFYSA-N

> <SMILES>
CC[C@]1(O)C(C[C@H]2[C@@H]3CCC4=CC(=O)CC[C@@H]4[C@H]3CC[C@@]21C)O

> <Synonyms>


> <PUBCHEM_CID>


> <Molecular_formula>
C20H30O3

> <Major_Isotope_Mass>
318.21949482

> <ALogP>
2.888899999999997

> <Lipinski_Violations>
0

> <Insecticide_Likeness_Violations>
0

> <Post_Em_Herbicide_Likeness_Violations>
0

> <Metabolite_ID>
BTM00004

> <Reaction>
16-Hydroxylation of sterol

> <Reaction_ID>
BTMR0407

> <Enzyme(s)>
CYP1A2
CYP2A6
CYP2B6
CYP2C8
CYP2C9
CYP2C19
CYP2D6
CYP2E1
CYP3A4

> <Biosystem>
HUMAN

> <Precursor_ID>


> <Precursor_SMILES>
CC[C@]1(O)CC[C@H]2[C@@H]3CCC4=CC(=O)CC[C@@H]4[C@H]3CC[C@@]21C

> <Precursor_InChI>
InChI=1S/C20H30O2/c1-3-20(22)11-9-18-17-6-4-13-12-14(21)5-7-15(13)16(17)8-10-19(18,20)2/h12,15-18,22H,3-11H2,1-2H3/t15-,16+,17+,18-,19-,20-/m0/s1

> <Precursor_InChIKey>
ZDHCJEIGTNNEMY-XGXHKTLJSA-N

> <Precursor_ALogP>


> <Precursor_Major_Isotope_Mass>
302.2245

$$$$
BTM00005
  CDK     09122622222D

 23 26  0  0  1  0  0  0  0  0999 V2000
    6.6370    1.5206    0.0000 C   0  0  0  0  0  0  0  0  0  0  0  0
    5.3384    2.2714    0.0000 C   0  0  0  0  0  0  0  0  0  0  0  0
    4.0389    1.5223    0.0000 C   0  0  2  0  0  0  0  0  0  0  0  0
    3.0424    3.7714    0.0000 O   0  0  0  0  0  0  0  0  0  0  0  0
    4.9189    0.3123    0.0000 C   0  0  0  0  0  0  0  0  0  0  0  0
    4.0389   -0.8977    0.0000 C   0  0  0  0  0  0  0  0  0  0  0  0
    2.6089   -0.4377    0.0000 C   0  0  1  0  0  0  0  0  0  0  0  0
    1.3089   -1.1877    0.0000 C   0  0  2  0  0  0  0  0  0  0  0  0
    1.3089   -2.6877    0.0000 C   0  0  0  0  0  0  0  0  0  0  0  0
    0.0089   -3.4377    0.0000 C   0  0  0  0  0  0  0  0  0  0  0  0
   -1.2911   -2.6877    0.0000 C   0  0  0  0  0  0  0  0  0  0  0  0
   -2.5911   -3.4377    0.0000 C   0  0  0  0  0  0  0  0  0  0  0  0
   -3.8911   -2.6877    0.0000 C   0  0  0  0  0  0  0  0  0  0  0  0
   -5.1900   -3.4379    0.0000 O   0  0  0  0  0  0  0  0  0  0  0  0
   -3.8911   -1.1877    0.0000 C   0  0  0  0  0  0  0  0  0  0  0  0
   -2.5911   -0.4377    0.0000 C   0  0  0  0  0  0  0  0  0  0  0  0
   -1.2911   -1.1877    0.0000 C   0  0  2  0  0  0  0  0  0  0  0  0
    0.0089   -0.4377    0.0000 C   0  0  1  0  0  0  0  0  0  0  0  0
    0.0089    1.0623    0.0000 C   0  0  0  0  0  0  0  0  0  0  0  0
    1.3089    1.8123    0.0000 C   0  0  0  0  0  0  0  0  0  0  0  0
    2.6089    1.0623    0.0000 C   0  0  2  0  0  0  0  0  0  0  0  0
    3.6075   -0.0570    0.0000 C   0  0  0  0  0  0  0  0  0  0  0  0
   -5.1900   -0.4375    0.0000 O   0  0  0  0  0  0  0  0  0  0  0  0
  1  2  1  0  0  0  0
  3  2  1  6  0  0  0
  3  4  1  1  0  0  0
  3  5  1  0  0  0  0
  5  6  1  0  0  0  0
  7  6  1  1  0  0  0
  7  8  1  0  0  0  0
  8  9  1  6  0  0  0
  9 10  1  0  0  0  0
 10 11  1  0  0  0  0
 11 12  2  0  0  0  0
 12 13  1  0  0  0  0
 13 14  2  0  0  0  0
 13 15  1  0  0  0  0
 15 16  1  0  0  0  0
 17 16  1  6  0  0  0
 11 17  1  0  0  0  0
 17 18  1  0  0  0  0
  8 18  1  0  0  0  0
 18 19  1  1  0  0  0
 19 20  1  0  0  0  0
 20 21  1  0  0  0  0
  7 21  1  0  0  0  0
  3 21  1  0  0  0  0
 21 22  1  1  0  0  0
 23 15  1  0  0  0  0
M  END
> <InChI>
InChI=1S/C20H30O3/c1-3-20(23)9-7-16-14-5-4-12-10-17(21)18(22)11-15(12)13(14)6-8-19(16,20)2/h10,13-16,18,22-23H,3-9,11H2,1-2H3/t13-,14+,15-,16-,18?,19-,20-/m0/s1

> <InChIKey>
XHVWNCNGJFRQKD-VQLATUPLSA-N

> <SMILES>
CC[C@]1(O)CC[C@H]2[C@@H]3CCC4=CC(=O)C(C[C@@H]4[C@H]3CC[C@@]21C)O

> <Synonyms>


> <PUBCHEM_CID>


> <Molecular_formula>
C20H30O3

> <Major_Isotope_Mass>
318.21949481999997

> <ALogP>
3.1752999999999973

> <Lipinski_Violations>
0

> <Insecticide_Likeness_Violations>
0

> <Post_Em_Herbicide_Likeness_Violations>
0

> <Metabolite_ID>
BTM00005

> <Reaction>
2-Hydroxylation of sterol

> <Reaction_ID>
BTMR0398

> <Enzyme(s)>
CYP1A2
CYP2C19
CYP3A4

> <Biosystem>
HUMAN

> <Precursor_ID>


> <Precursor_SMILES>
CC[C@]1(O)CC[C@H]2[C@@H]3CCC4=CC(=O)CC[C@@H]4[C@H]3CC[C@@]21C

> <Precursor_InChI>
InChI=1S/C20H30O2/c1-3-20(22)11-9-18-17-6-4-13-12-14(21)5-7-15(13)16(17)8-10-19(18,20)2/h12,15-18,22H,3-11H2,1-2H3/t15-,16+,17+,18-,19-,20-/m0/s1

> <Precursor_InChIKey>
ZDHCJEIGTNNEMY-XGXHKTLJSA-N

> <Precursor_ALogP>


> <Precursor_Major_Isotope_Mass>
302.2245

$$$$
BTM00006
  CDK     09122622222D

 23 26  0  0  1  0  0  0  0  0999 V2000
    5.3394    3.7714    0.0000 C   0  0  0  0  0  0  0  0  0  0  0  0
    5.3384    2.2714    0.0000 C   0  0  0  0  0  0  0  0  0  0  0  0
    4.0389    1.5223    0.0000 C   0  0  2  0  0  0  0  0  0  0  0  0
    3.0424    3.7714    0.0000 O   0  0  0  0  0  0  0  0  0  0  0  0
    4.9189    0.3123    0.0000 C   0  0  0  0  0  0  0  0  0  0  0  0
    4.0389   -0.8977    0.0000 C   0  0  0  0  0  0  0  0  0  0  0  0
    2.6089   -0.4377    0.0000 C   0  0  1  0  0  0  0  0  0  0  0  0
    1.3089   -1.1877    0.0000 C   0  0  2  0  0  0  0  0  0  0  0  0
    1.3089   -2.6877    0.0000 C   0  0  0  0  0  0  0  0  0  0  0  0
    0.0089   -3.4377    0.0000 C   0  0  0  0  0  0  0  0  0  0  0  0
   -1.2911   -2.6877    0.0000 C   0  0  0  0  0  0  0  0  0  0  0  0
   -2.5911   -3.4377    0.0000 C   0  0  0  0  0  0  0  0  0  0  0  0
   -3.8911   -2.6877    0.0000 C   0  0  0  0  0  0  0  0  0  0  0  0
   -5.1900   -3.4379    0.0000 O   0  0  0  0  0  0  0  0  0  0  0  0
   -3.8911   -1.1877    0.0000 C   0  0  0  0  0  0  0  0  0  0  0  0
   -2.5911   -0.4377    0.0000 C   0  0  0  0  0  0  0  0  0  0  0  0
   -1.2911   -1.1877    0.0000 C   0  0  2  0  0  0  0  0  0  0  0  0
    0.0089   -0.4377    0.0000 C   0  0  1  0  0  0  0  0  0  0  0  0
    0.0089    1.0623    0.0000 C   0  0  0  0  0  0  0  0  0  0  0  0
    1.3089    1.8123    0.0000 C   0  0  0  0  0  0  0  0  0  0  0  0
    2.6089    1.0623    0.0000 C   0  0  2  0  0  0  0  0  0  0  0  0
    3.6075   -0.0570    0.0000 C   0  0  0  0  0  0  0  0  0  0  0  0
   -2.5911   -4.9377    0.0000 O   0  0  0  0  0  0  0  0  0  0  0  0
  1  2  1  0  0  0  0
  3  2  1  6  0  0  0
  3  4  1  1  0  0  0
  3  5  1  0  0  0  0
  5  6  1  0  0  0  0
  7  6  1  1  0  0  0
  7  8  1  0  0  0  0
  8  9  1  6  0  0  0
  9 10  1  0  0  0  0
 10 11  1  0  0  0  0
 11 12  2  0  0  0  0
 12 13  1  0  0  0  0
 13 14  2  0  0  0  0
 13 15  1  0  0  0  0
 15 16  1  0  0  0  0
 17 16  1  6  0  0  0
 11 17  1  0  0  0  0
 17 18  1  0  0  0  0
  8 18  1  0  0  0  0
 18 19  1  1  0  0  0
 19 20  1  0  0  0  0
 20 21  1  0  0  0  0
  7 21  1  0  0  0  0
  3 21  1  0  0  0  0
 21 22  1  1  0  0  0
 23 12  1  0  0  0  0
M  END
> <InChI>
InChI=1S/C20H30O3/c1-3-20(23)11-9-16-14-4-5-15-12(6-7-17(21)18(15)22)13(14)8-10-19(16,20)2/h12-14,16,22-23H,3-11H2,1-2H3/t12-,13-,14-,16+,19+,20+/m1/s1

> <InChIKey>
SWBXVPADIJMIEG-QPRFUBIKSA-N

> <SMILES>
CC[C@]1(O)CC[C@H]2[C@@H]3CCC4=C(C(=O)CC[C@@H]4[C@H]3CC[C@@]21C)O

> <Synonyms>


> <PUBCHEM_CID>


> <Molecular_formula>
C20H30O3

> <Major_Isotope_Mass>
318.21949481999997

> <ALogP>
3.2926999999999973

> <Lipinski_Violations>
0

> <Insecticide_Likeness_Violations>
0

> <Post_Em_Herbicide_Likeness_Violations>
0

> <Metabolite_ID>
BTM00006

> <Reaction>
4-Hydroxylation of sterol

> <Reaction_ID>
BTMR0400

> <Enzyme(s)>
CYP1A2
CYP3A4

> <Biosystem>
HUMAN

> <Precursor_ID>


> <Precursor_SMILES>
CC[C@]1(O)CC[C@H]2[C@@H]3CCC4=CC(=O)CC[C@@H]4[C@H]3CC[C@@]21C

> <Precursor_InChI>
InChI=1S/C20H30O2/c1-3-20(22)11-9-18-17-6-4-13-12-14(21)5-7-15(13)16(17)8-10-19(18,20)2/h12,15-18,22H,3-11H2,1-2H3/t15-,16+,17+,18-,19-,20-/m0/s1

> <Precursor_InChIKey>
ZDHCJEIGTNNEMY-XGXHKTLJSA-N

> <Precursor_ALogP>


> <Precursor_Major_Isotope_Mass>
302.2245

$$$$
BTM00007
  CDK     09122622222D

 23 26  0  0  1  0  0  0  0  0999 V2000
    5.0931    3.4019    0.0000 C   0  0  0  0  0  0  0  0  0  0  0  0
    5.0914    1.9019    0.0000 C   0  0  0  0  0  0  0  0  0  0  0  0
    3.7914    1.1534    0.0000 C   0  0  2  0  0  0  0  0  0  0  0  0
    2.7884    3.3996    0.0000 O   0  0  0  0  0  0  0  0  0  0  0  0
    4.6714   -0.0666    0.0000 C   0  0  0  0  0  0  0  0  0  0  0  0
    3.7914   -1.2766    0.0000 C   0  0  0  0  0  0  0  0  0  0  0  0
    2.3614   -0.8166    0.0000 C   0  0  1  0  0  0  0  0  0  0  0  0
    1.0614   -1.5666    0.0000 C   0  0  2  0  0  0  0  0  0  0  0  0
    1.0614   -3.0666    0.0000 C   0  0  0  0  0  0  0  0  0  0  0  0
   -0.2386   -3.8166    0.0000 C   0  0  0  0  0  0  0  0  0  0  0  0
   -1.5386   -3.0666    0.0000 C   0  0  0  0  0  0  0  0  0  0  0  0
   -2.8386   -3.8166    0.0000 C   0  0  0  0  0  0  0  0  0  0  0  0
   -4.1386   -3.0666    0.0000 C   0  0  0  0  0  0  0  0  0  0  0  0
   -5.4375   -3.8168    0.0000 O   0  0  0  0  0  0  0  0  0  0  0  0
   -4.1386   -1.5666    0.0000 C   0  0  0  0  0  0  0  0  0  0  0  0
   -2.8386   -0.8166    0.0000 C   0  0  0  0  0  0  0  0  0  0  0  0
   -1.5386   -1.5666    0.0000 C   0  0  2  0  0  0  0  0  0  0  0  0
   -0.2386   -0.8166    0.0000 C   0  0  1  0  0  0  0  0  0  0  0  0
   -0.2386    0.6834    0.0000 C   0  0  0  0  0  0  0  0  0  0  0  0
    1.0614    1.4334    0.0000 C   0  0  0  0  0  0  0  0  0  0  0  0
    2.3614    0.6834    0.0000 C   0  0  2  0  0  0  0  0  0  0  0  0
    3.3706   -0.4263    0.0000 C   0  0  0  0  0  0  0  0  0  0  0  0
    6.3895    1.1504    0.0000 O   0  0  0  0  0  0  0  0  0  0  0  0
  1  2  1  0  0  0  0
  3  2  1  0  0  0  0
  3  4  1  1  0  0  0
  3  5  1  0  0  0  0
  5  6  1  0  0  0  0
  7  6  1  1  0  0  0
  7  8  1  0  0  0  0
  8  9  1  6  0  0  0
  9 10  1  0  0  0  0
 10 11  1  0  0  0  0
 11 12  2  0  0  0  0
 12 13  1  0  0  0  0
 13 14  2  0  0  0  0
 13 15  1  0  0  0  0
 15 16  1  0  0  0  0
 17 16  1  6  0  0  0
 11 17  1  0  0  0  0
 17 18  1  0  0  0  0
  8 18  1  0  0  0  0
 18 19  1  1  0  0  0
 19 20  1  0  0  0  0
 20 21  1  0  0  0  0
  7 21  1  0  0  0  0
  3 21  1  0  0  0  0
 21 22  1  1  0  0  0
  2 23  1  0  0  0  0
M  END
> <InChI>
InChI=1S/C20H30O3/c1-12(21)20(23)10-8-18-17-5-3-13-11-14(22)4-6-15(13)16(17)7-9-19(18,20)2/h11-12,15-18,21,23H,3-10H2,1-2H3/t12?,15-,16+,17+,18-,19-,20+/m0/s1

> <InChIKey>
SZKTUTRMBONILN-BTPPLEOJSA-N

> <SMILES>
CC([C@]1(O)CC[C@H]2[C@@H]3CCC4=CC(=O)CC[C@@H]4[C@H]3CC[C@@]21C)O

> <Synonyms>


> <PUBCHEM_CID>


> <Molecular_formula>
C20H30O3

> <Major_Isotope_Mass>
318.21949481999997

> <ALogP>
2.821399999999997

> <Lipinski_Violations>
0

> <Insecticide_Likeness_Violations>
0

> <Post_Em_Herbicide_Likeness_Violations>
0

> <Metabolite_ID>
BTM00007

> <Reaction>
Hydroxylation of penultimate aliphatic secondary carbon

> <Reaction_ID>
BTMR1074

> <Enzyme(s)>
CYP1A2
CYP2A6
CYP2B6
CYP2C8
CYP2C9
CYP2C19
CYP2D6
CYP2E1
CYP3A4

> <Biosystem>
HUMAN

> <Precursor_ID>


> <Precursor_SMILES>
CC[C@]1(O)CC[C@H]2[C@@H]3CCC4=CC(=O)CC[C@@H]4[C@H]3CC[C@@]21C

> <Precursor_InChI>
InChI=1S/C20H30O2/c1-3-20(22)11-9-18-17-6-4-13-12-14(21)5-7-15(13)16(17)8-10-19(18,20)2/h12,15-18,22H,3-11H2,1-2H3/t15-,16+,17+,18-,19-,20-/m0/s1

> <Precursor_InChIKey>
ZDHCJEIGTNNEMY-XGXHKTLJSA-N

> <Precursor_ALogP>


> <Precursor_Major_Isotope_Mass>
302.2245

$$$$
BTM00008
  CDK     09122622222D

 23 26  0  0  1  0  0  0  0  0999 V2000
    5.0931    3.4019    0.0000 C   0  0  0  0  0  0  0  0  0  0  0  0
    5.0914    1.9019    0.0000 C   0  0  0  0  0  0  0  0  0  0  0  0
    3.7914    1.1534    0.0000 C   0  0  2  0  0  0  0  0  0  0  0  0
    2.7884    3.3996    0.0000 O   0  0  0  0  0  0  0  0  0  0  0  0
    4.6714   -0.0666    0.0000 C   0  0  0  0  0  0  0  0  0  0  0  0
    3.7914   -1.2766    0.0000 C   0  0  0  0  0  0  0  0  0  0  0  0
    2.3614   -0.8166    0.0000 C   0  0  1  0  0  0  0  0  0  0  0  0
    1.0614   -1.5666    0.0000 C   0  0  2  0  0  0  0  0  0  0  0  0
    1.0614   -3.0666    0.0000 C   0  0  0  0  0  0  0  0  0  0  0  0
   -0.2386   -3.8166    0.0000 C   0  0  0  0  0  0  0  0  0  0  0  0
   -1.5386   -3.0666    0.0000 C   0  0  0  0  0  0  0  0  0  0  0  0
   -2.8386   -3.8166    0.0000 C   0  0  0  0  0  0  0  0  0  0  0  0
   -4.1386   -3.0666    0.0000 C   0  0  0  0  0  0  0  0  0  0  0  0
   -5.4375   -3.8168    0.0000 O   0  0  0  0  0  0  0  0  0  0  0  0
   -4.1386   -1.5666    0.0000 C   0  0  0  0  0  0  0  0  0  0  0  0
   -2.8386   -0.8166    0.0000 C   0  0  0  0  0  0  0  0  0  0  0  0
   -1.5386   -1.5666    0.0000 C   0  0  2  0  0  0  0  0  0  0  0  0
   -0.2386   -0.8166    0.0000 C   0  0  1  0  0  0  0  0  0  0  0  0
   -0.2386    0.6834    0.0000 C   0  0  0  0  0  0  0  0  0  0  0  0
    1.0614    1.4334    0.0000 C   0  0  0  0  0  0  0  0  0  0  0  0
    2.3614    0.6834    0.0000 C   0  0  2  0  0  0  0  0  0  0  0  0
    3.3706   -0.4263    0.0000 C   0  0  0  0  0  0  0  0  0  0  0  0
    6.3930    4.1504    0.0000 O   0  0  0  0  0  0  0  0  0  0  0  0
  1  2  1  0  0  0  0
  3  2  1  6  0  0  0
  3  4  1  1  0  0  0
  3  5  1  0  0  0  0
  5  6  1  0  0  0  0
  7  6  1  1  0  0  0
  7  8  1  0  0  0  0
  8  9  1  6  0  0  0
  9 10  1  0  0  0  0
 10 11  1  0  0  0  0
 11 12  2  0  0  0  0
 12 13  1  0  0  0  0
 13 14  2  0  0  0  0
 13 15  1  0  0  0  0
 15 16  1  0  0  0  0
 17 16  1  6  0  0  0
 11 17  1  0  0  0  0
 17 18  1  0  0  0  0
  8 18  1  0  0  0  0
 18 19  1  1  0  0  0
 19 20  1  0  0  0  0
 20 21  1  0  0  0  0
  7 21  1  0  0  0  0
  3 21  1  0  0  0  0
 21 22  1  1  0  0  0
 23  1  1  0  0  0  0
M  END
> <InChI>
InChI=1S/C20H30O3/c1-19-8-6-16-15-5-3-14(22)12-13(15)2-4-17(16)18(19)7-9-20(19,23)10-11-21/h12,15-18,21,23H,2-11H2,1H3/t15-,16+,17+,18-,19-,20+/m0/s1

> <InChIKey>
NWEGCXCYAUNOPR-JBKQDOAHSA-N

> <SMILES>
C(C[C@]1(O)CC[C@H]2[C@@H]3CCC4=CC(=O)CC[C@@H]4[C@H]3CC[C@@]21C)O

> <Synonyms>


> <PUBCHEM_CID>


> <Molecular_formula>
C20H30O3

> <Major_Isotope_Mass>
318.21949481999997

> <ALogP>
2.506299999999997

> <Lipinski_Violations>
0

> <Insecticide_Likeness_Violations>
0

> <Post_Em_Herbicide_Likeness_Violations>
0

> <Metabolite_ID>
BTM00008

> <Reaction>
Hydroxylation of terminal methyl

> <Reaction_ID>
BTMR1061

> <Enzyme(s)>
CYP1A2
CYP2A6
CYP2B6
CYP2C8
CYP2C9
CYP2C19
CYP2D6
CYP2E1
CYP3A4

> <Biosystem>
HUMAN

> <Precursor_ID>


> <Precursor_SMILES>
CC[C@]1(O)CC[C@H]2[C@@H]3CCC4=CC(=O)CC[C@@H]4[C@H]3CC[C@@]21C

> <Precursor_InChI>
InChI=1S/C20H30O2/c1-3-20(22)11-9-18-17-6-4-13-12-14(21)5-7-15(13)16(17)8-10-19(18,20)2/h12,15-18,22H,3-11H2,1-2H3/t15-,16+,17+,18-,19-,20-/m0/s1

> <Precursor_InChIKey>
ZDHCJEIGTNNEMY-XGXHKTLJSA-N

> <Precursor_ALogP>


> <Precursor_Major_Isotope_Mass>
302.2245

$$$$
BTM00009
  CDK     09122622222D

 22 25  0  0  1  0  0  0  0  0999 V2000
    5.3394    3.7714    0.0000 C   0  0  0  0  0  0  0  0  0  0  0  0
    5.3384    2.2714    0.0000 C   0  0  0  0  0  0  0  0  0  0  0  0
    4.0389    1.5223    0.0000 C   0  0  2  0  0  0  0  0  0  0  0  0
    3.0424    3.7714    0.0000 O   0  0  0  0  0  0  0  0  0  0  0  0
    4.9189    0.3123    0.0000 C   0  0  0  0  0  0  0  0  0  0  0  0
    4.0389   -0.8977    0.0000 C   0  0  0  0  0  0  0  0  0  0  0  0
    2.6089   -0.4377    0.0000 C   0  0  1  0  0  0  0  0  0  0  0  0
    1.3089   -1.1877    0.0000 C   0  0  2  0  0  0  0  0  0  0  0  0
    1.3089   -2.6877    0.0000 C   0  0  0  0  0  0  0  0  0  0  0  0
    0.0089   -3.4377    0.0000 C   0  0  0  0  0  0  0  0  0  0  0  0
   -1.2911   -2.6877    0.0000 C   0  0  0  0  0  0  0  0  0  0  0  0
   -2.5911   -3.4377    0.0000 C   0  0  0  0  0  0  0  0  0  0  0  0
   -3.8911   -2.6877    0.0000 C   0  0  0  0  0  0  0  0  0  0  0  0
   -5.1900   -3.4379    0.0000 O   0  0  0  0  0  0  0  0  0  0  0  0
   -3.8911   -1.1877    0.0000 C   0  0  0  0  0  0  0  0  0  0  0  0
   -2.5911   -0.4377    0.0000 C   0  0  0  0  0  0  0  0  0  0  0  0
   -1.2911   -1.1877    0.0000 C   0  0  2  0  0  0  0  0  0  0  0  0
    0.0089   -0.4377    0.0000 C   0  0  1  0  0  0  0  0  0  0  0  0
    0.0089    1.0623    0.0000 C   0  0  0  0  0  0  0  0  0  0  0  0
    1.3089    1.8123    0.0000 C   0  0  0  0  0  0  0  0  0  0  0  0
    2.6089    1.0623    0.0000 C   0  0  2  0  0  0  0  0  0  0  0  0
    3.6075   -0.0570    0.0000 C   0  0  0  0  0  0  0  0  0  0  0  0
  1  2  2  0  0  0  0
  3  2  1  6  0  0  0
  3  4  1  1  0  0  0
  3  5  1  0  0  0  0
  5  6  1  0  0  0  0
  7  6  1  1  0  0  0
  7  8  1  0  0  0  0
  8  9  1  6  0  0  0
  9 10  1  0  0  0  0
 10 11  1  0  0  0  0
 11 12  2  0  0  0  0
 12 13  1  0  0  0  0
 13 14  2  0  0  0  0
 13 15  1  0  0  0  0
 15 16  1  0  0  0  0
 17 16  1  6  0  0  0
 11 17  1  0  0  0  0
 17 18  1  0  0  0  0
  8 18  1  0  0  0  0
 18 19  1  1  0  0  0
 19 20  1  0  0  0  0
 20 21  1  0  0  0  0
  7 21  1  0  0  0  0
  3 21  1  0  0  0  0
 21 22  1  1  0  0  0
M  END
> <InChI>
InChI=1S/C20H28O2/c1-3-20(22)11-9-18-17-6-4-13-12-14(21)5-7-15(13)16(17)8-10-19(18,20)2/h3,12,15-18,22H,1,4-11H2,2H3/t15-,16+,17+,18-,19-,20-/m0/s1

> <InChIKey>
VOJYZDFYEHKHAP-XGXHKTLJSA-N

> <SMILES>
C=C[C@]1(O)CC[C@H]2[C@@H]3CCC4=CC(=O)CC[C@@H]4[C@H]3CC[C@@]21C

> <Synonyms>


> <PUBCHEM_CID>


> <Molecular_formula>
C20H28O2

> <Major_Isotope_Mass>
300.208930136

> <ALogP>
3.6000999999999976

> <Lipinski_Violations>
0

> <Insecticide_Likeness_Violations>
0

> <Post_Em_Herbicide_Likeness_Violations>
0

> <Metabolite_ID>
BTM00009

> <Reaction>
Terminal desaturation

> <Reaction_ID>
BTMR1190

> <Enzyme(s)>
CYP1A2
CYP2A6
CYP2C9
CYP2D6
CYP3A4

> <Biosystem>
HUMAN

> <Precursor_ID>


> <Precursor_SMILES>
CC[C@]1(O)CC[C@H]2[C@@H]3CCC4=CC(=O)CC[C@@H]4[C@H]3CC[C@@]21C

> <Precursor_InChI>
InChI=1S/C20H30O2/c1-3-20(22)11-9-18-17-6-4-13-12-14(21)5-7-15(13)16(17)8-10-19(18,20)2/h12,15-18,22H,3-11H2,1-2H3/t15-,16+,17+,18-,19-,20-/m0/s1

> <Precursor_InChIKey>
ZDHCJEIGTNNEMY-XGXHKTLJSA-N

> <Precursor_ALogP>


> <Precursor_Major_Isotope_Mass>
302.2245

$$$$
BTM00010
  CDK     09122622222D

 23 26  0  0  1  0  0  0  0  0999 V2000
    5.3394    3.7714    0.0000 C   0  0  0  0  0  0  0  0  0  0  0  0
    5.3384    2.2714    0.0000 C   0  0  0  0  0  0  0  0  0  0  0  0
    4.0389    1.5223    0.0000 C   0  0  2  0  0  0  0  0  0  0  0  0
    3.0424    3.7714    0.0000 O   0  0  0  0  0  0  0  0  0  0  0  0
    4.9189    0.3123    0.0000 C   0  0  0  0  0  0  0  0  0  0  0  0
    4.0389   -0.8977    0.0000 C   0  0  0  0  0  0  0  0  0  0  0  0
    2.6089   -0.4377    0.0000 C   0  0  1  0  0  0  0  0  0  0  0  0
    1.3089   -1.1877    0.0000 C   0  0  2  0  0  0  0  0  0  0  0  0
    1.3089   -2.6877    0.0000 C   0  0  0  0  0  0  0  0  0  0  0  0
    0.0089   -3.4377    0.0000 C   0  0  0  0  0  0  0  0  0  0  0  0
   -1.2911   -2.6877    0.0000 C   0  0  0  0  0  0  0  0  0  0  0  0
   -2.5911   -3.4377    0.0000 C   0  0  0  0  0  0  0  0  0  0  0  0
   -3.8911   -2.6877    0.0000 C   0  0  0  0  0  0  0  0  0  0  0  0
   -5.1900   -3.4379    0.0000 O   0  0  0  0  0  0  0  0  0  0  0  0
   -3.8911   -1.1877    0.0000 C   0  0  0  0  0  0  0  0  0  0  0  0
   -2.5911   -0.4377    0.0000 C   0  0  0  0  0  0  0  0  0  0  0  0
   -1.2911   -1.1877    0.0000 C   0  0  2  0  0  0  0  0  0  0  0  0
    0.0089   -0.4377    0.0000 C   0  0  1  0  0  0  0  0  0  0  0  0
    0.0089    1.0623    0.0000 C   0  0  0  0  0  0  0  0  0  0  0  0
    1.3089    1.8123    0.0000 C   0  0  0  0  0  0  0  0  0  0  0  0
    2.6089    1.0623    0.0000 C   0  0  2  0  0  0  0  0  0  0  0  0
    3.6075   -0.0570    0.0000 C   0  0  0  0  0  0  0  0  0  0  0  0
    0.0089   -4.9377    0.0000 O   0  0  0  0  0  0  0  0  0  0  0  0
  1  2  1  0  0  0  0
  3  2  1  6  0  0  0
  3  4  1  1  0  0  0
  3  5  1  0  0  0  0
  5  6  1  0  0  0  0
  7  6  1  1  0  0  0
  7  8  1  0  0  0  0
  8  9  1  6  0  0  0
  9 10  1  0  0  0  0
 10 11  1  0  0  0  0
 11 12  2  0  0  0  0
 12 13  1  0  0  0  0
 13 14  2  0  0  0  0
 13 15  1  0  0  0  0
 15 16  1  0  0  0  0
 17 16  1  6  0  0  0
 11 17  1  0  0  0  0
 17 18  1  0  0  0  0
  8 18  1  0  0  0  0
 18 19  1  1  0  0  0
 19 20  1  0  0  0  0
 20 21  1  0  0  0  0
  7 21  1  0  0  0  0
  3 21  1  0  0  0  0
 21 22  1  1  0  0  0
 23 10  1  0  0  0  0
M  END
> <InChI>
InChI=1S/C20H30O3/c1-3-20(23)9-7-17-15-11-18(22)16-10-12(21)4-5-13(16)14(15)6-8-19(17,20)2/h10,13-15,17-18,22-23H,3-9,11H2,1-2H3/t13-,14-,15-,17+,18?,19+,20+/m1/s1

> <InChIKey>
OHZGIQHRQKBITA-CVZRWRDISA-N

> <SMILES>
CC[C@]1(O)CC[C@H]2[C@@H]3CC(C4=CC(=O)CC[C@@H]4[C@H]3CC[C@@]21C)O

> <Synonyms>


> <PUBCHEM_CID>


> <Molecular_formula>
C20H30O3

> <Major_Isotope_Mass>
318.21949482

> <ALogP>
2.753899999999998

> <Lipinski_Violations>
0

> <Insecticide_Likeness_Violations>
0

> <Post_Em_Herbicide_Likeness_Violations>
0

> <Metabolite_ID>
BTM00010

> <Reaction>
6-Hydroxylation of sterol

> <Reaction_ID>
BTMR0402

> <Enzyme(s)>
CYP2A6
CYP2B6
CYP2C8
CYP2C9
CYP2C19
CYP2D6
CYP3A4

> <Biosystem>
HUMAN

> <Precursor_ID>


> <Precursor_SMILES>
CC[C@]1(O)CC[C@H]2[C@@H]3CCC4=CC(=O)CC[C@@H]4[C@H]3CC[C@@]21C

> <Precursor_InChI>
InChI=1S/C20H30O2/c1-3-20(22)11-9-18-17-6-4-13-12-14(21)5-7-15(13)16(17)8-10-19(18,20)2/h12,15-18,22H,3-11H2,1-2H3/t15-,16+,17+,18-,19-,20-/m0/s1

> <Precursor_InChIKey>
ZDHCJEIGTNNEMY-XGXHKTLJSA-N

> <Precursor_ALogP>


> <Precursor_Major_Isotope_Mass>
302.2245

$$$$
BTM00011
  CDK     09122622222D

 23 26  0  0  1  0  0  0  0  0999 V2000
    4.7016    4.2785    0.0000 C   0  0  0  0  0  0  0  0  0  0  0  0
    4.6999    2.7785    0.0000 C   0  0  0  0  0  0  0  0  0  0  0  0
    3.4000    2.0300    0.0000 C   0  0  2  0  0  0  0  0  0  0  0  0
    3.0355    3.4850    0.0000 O   0  0  0  0  0  0  0  0  0  0  0  0
    4.2800    0.8100    0.0000 C   0  0  0  0  0  0  0  0  0  0  0  0
    3.4000   -0.4000    0.0000 C   0  0  0  0  0  0  0  0  0  0  0  0
    1.9700    0.0600    0.0000 C   0  0  1  0  0  0  0  0  0  0  0  0
    0.6700   -0.6900    0.0000 C   0  0  2  0  0  0  0  0  0  0  0  0
    0.6700   -2.1900    0.0000 C   0  0  0  0  0  0  0  0  0  0  0  0
   -0.6300   -2.9400    0.0000 C   0  0  0  0  0  0  0  0  0  0  0  0
   -1.9300   -2.1900    0.0000 C   0  0  0  0  0  0  0  0  0  0  0  0
   -3.2300   -2.9400    0.0000 C   0  0  0  0  0  0  0  0  0  0  0  0
   -4.5300   -2.1900    0.0000 C   0  0  0  0  0  0  0  0  0  0  0  0
   -5.8289   -2.9402    0.0000 O   0  0  0  0  0  0  0  0  0  0  0  0
   -4.5300   -0.6900    0.0000 C   0  0  0  0  0  0  0  0  0  0  0  0
   -3.2300    0.0600    0.0000 C   0  0  0  0  0  0  0  0  0  0  0  0
   -1.9300   -0.6900    0.0000 C   0  0  2  0  0  0  0  0  0  0  0  0
   -0.6300    0.0600    0.0000 C   0  0  1  0  0  0  0  0  0  0  0  0
   -0.6300    1.5600    0.0000 C   0  0  0  0  0  0  0  0  0  0  0  0
    0.6700    2.3100    0.0000 C   0  0  0  0  0  0  0  0  0  0  0  0
    1.9700    1.5600    0.0000 C   0  0  2  0  0  0  0  0  0  0  0  0
    2.1240    3.0521    0.0000 C   0  0  0  0  0  0  0  0  0  0  0  0
    0.9089    3.9315    0.0000 O   0  0  0  0  0  0  0  0  0  0  0  0
  1  2  1  0  0  0  0
  3  2  1  6  0  0  0
  3  4  1  1  0  0  0
  3  5  1  0  0  0  0
  5  6  1  0  0  0  0
  7  6  1  1  0  0  0
  7  8  1  0  0  0  0
  8  9  1  6  0  0  0
  9 10  1  0  0  0  0
 10 11  1  0  0  0  0
 11 12  2  0  0  0  0
 12 13  1  0  0  0  0
 13 14  2  0  0  0  0
 13 15  1  0  0  0  0
 15 16  1  0  0  0  0
 17 16  1  6  0  0  0
 11 17  1  0  0  0  0
 17 18  1  0  0  0  0
  8 18  1  0  0  0  0
 18 19  1  1  0  0  0
 19 20  1  0  0  0  0
 20 21  1  0  0  0  0
  7 21  1  0  0  0  0
  3 21  1  0  0  0  0
 21 22  1  1  0  0  0
 23 22  1  0  0  0  0
M  END
> <InChI>
InChI=1S/C20H30O3/c1-2-20(23)10-8-18-17-5-3-13-11-14(22)4-6-15(13)16(17)7-9-19(18,20)12-21/h11,15-18,21,23H,2-10,12H2,1H3/t15-,16+,17+,18-,19+,20-/m0/s1

> <InChIKey>
GKZSCJSBWGIQHP-BIEDPOGDSA-N

> <SMILES>
CC[C@]1(O)CC[C@H]2[C@@H]3CCC4=CC(=O)CC[C@@H]4[C@H]3CC[C@@]21CO

> <Synonyms>


> <PUBCHEM_CID>


> <Molecular_formula>
C20H30O3

> <Major_Isotope_Mass>
318.21949481999997

> <ALogP>
2.7650999999999972

> <Lipinski_Violations>
0

> <Insecticide_Likeness_Violations>
0

> <Post_Em_Herbicide_Likeness_Violations>
0

> <Metabolite_ID>
BTM00011

> <Reaction>
Hydroxylation of methyl carbon adjacent to aliphatic ring

> <Reaction_ID>
BTMR0054

> <Enzyme(s)>
CYP2B6
CYP2C8
CYP2C9
CYP2C19
CYP2D6
CYP3A4

> <Biosystem>
HUMAN

> <Precursor_ID>


> <Precursor_SMILES>
CC[C@]1(O)CC[C@H]2[C@@H]3CCC4=CC(=O)CC[C@@H]4[C@H]3CC[C@@]21C

> <Precursor_InChI>
InChI=1S/C20H30O2/c1-3-20(22)11-9-18-17-6-4-13-12-14(21)5-7-15(13)16(17)8-10-19(18,20)2/h12,15-18,22H,3-11H2,1-2H3/t15-,16+,17+,18-,19-,20-/m0/s1

> <Precursor_InChIKey>
ZDHCJEIGTNNEMY-XGXHKTLJSA-N

> <Precursor_ALogP>


> <Precursor_Major_Isotope_Mass>
302.2245

$$$$
BTM00012
  CDK     09122622222D

 22 25  0  0  1  0  0  0  0  0999 V2000
    5.3394    3.7714    0.0000 C   0  0  0  0  0  0  0  0  0  0  0  0
    5.3384    2.2714    0.0000 C   0  0  0  0  0  0  0  0  0  0  0  0
    4.0389    1.5223    0.0000 C   0  0  2  0  0  0  0  0  0  0  0  0
    3.0424    3.7714    0.0000 O   0  0  0  0  0  0  0  0  0  0  0  0
    4.9189    0.3123    0.0000 C   0  0  0  0  0  0  0  0  0  0  0  0
    4.0389   -0.8977    0.0000 C   0  0  0  0  0  0  0  0  0  0  0  0
    2.6089   -0.4377    0.0000 C   0  0  1  0  0  0  0  0  0  0  0  0
    1.3089   -1.1877    0.0000 C   0  0  2  0  0  0  0  0  0  0  0  0
    1.3089   -2.6877    0.0000 C   0  0  0  0  0  0  0  0  0  0  0  0
    0.0089   -3.4377    0.0000 C   0  0  0  0  0  0  0  0  0  0  0  0
   -1.2911   -2.6877    0.0000 C   0  0  0  0  0  0  0  0  0  0  0  0
   -2.5911   -3.4377    0.0000 C   0  0  0  0  0  0  0  0  0  0  0  0
   -3.8911   -2.6877    0.0000 C   0  0  0  0  0  0  0  0  0  0  0  0
   -5.1900   -3.4379    0.0000 O   0  0  0  0  0  0  0  0  0  0  0  0
   -3.8911   -1.1877    0.0000 C   0  0  0  0  0  0  0  0  0  0  0  0
   -2.5911   -0.4377    0.0000 C   0  0  0  0  0  0  0  0  0  0  0  0
   -1.2911   -1.1877    0.0000 C   0  0  2  0  0  0  0  0  0  0  0  0
    0.0089   -0.4377    0.0000 C   0  0  1  0  0  0  0  0  0  0  0  0
    0.0089    1.0623    0.0000 C   0  0  0  0  0  0  0  0  0  0  0  0
    1.3089    1.8123    0.0000 C   0  0  0  0  0  0  0  0  0  0  0  0
    2.6089    1.0623    0.0000 C   0  0  2  0  0  0  0  0  0  0  0  0
    3.6075   -0.0570    0.0000 C   0  0  0  0  0  0  0  0  0  0  0  0
  1  2  1  0  0  0  0
  3  2  1  6  0  0  0
  3  4  1  1  0  0  0
  3  5  1  0  0  0  0
  5  6  1  0  0  0  0
  7  6  1  1  0  0  0
  7  8  1  0  0  0  0
  8  9  1  6  0  0  0
  9 10  1  0  0  0  0
 10 11  1  0  0  0  0
 11 12  1  0  0  0  0
 12 13  1  0  0  0  0
 13 14  2  0  0  0  0
 13 15  1  0  0  0  0
 15 16  1  0  0  0  0
 17 16  1  6  0  0  0
 11 17  1  0  0  0  0
 17 18  1  0  0  0  0
  8 18  1  0  0  0  0
 18 19  1  1  0  0  0
 19 20  1  0  0  0  0
 20 21  1  0  0  0  0
  7 21  1  0  0  0  0
  3 21  1  0  0  0  0
 21 22  1  1  0  0  0
M  END
> <InChI>
InChI=1S/C20H32O2/c1-3-20(22)11-9-18-17-6-4-13-12-14(21)5-7-15(13)16(17)8-10-19(18,20)2/h13,15-18,22H,3-12H2,1-2H3/t13?,15-,16+,17+,18-,19-,20-/m0/s1

> <InChIKey>
IOLODVBMNDJVOP-WXCNJCRASA-N

> <SMILES>
CC[C@]1(O)CC[C@H]2[C@@H]3CCC4CC(=O)CC[C@@H]4[C@H]3CC[C@@]21C

> <Synonyms>


> <PUBCHEM_CID>


> <Molecular_formula>
C20H32O2

> <Major_Isotope_Mass>
304.240230264

> <ALogP>
3.6843999999999975

> <Lipinski_Violations>
0

> <Insecticide_Likeness_Violations>
0

> <Post_Em_Herbicide_Likeness_Violations>
0

> <Metabolite_ID>
BTM00012

> <Reaction>
Reduction of alpha,beta-unsaturated carbon-carbon double bond adjacent to electron withdrawing group

> <Reaction_ID>
BTMR1209

> <Enzyme(s)>
EC 1.6.99.1

> <Biosystem>
GUTMICRO

> <Precursor_ID>


> <Precursor_SMILES>
CC[C@]1(O)CC[C@H]2[C@@H]3CCC4=CC(=O)CC[C@@H]4[C@H]3CC[C@@]21C

> <Precursor_InChI>
InChI=1S/C20H30O2/c1-3-20(22)11-9-18-17-6-4-13-12-14(21)5-7-15(13)16(17)8-10-19(18,20)2/h12,15-18,22H,3-11H2,1-2H3/t15-,16+,17+,18-,19-,20-/m0/s1

> <Precursor_InChIKey>
ZDHCJEIGTNNEMY-XGXHKTLJSA-N

> <Precursor_ALogP>


> <Precursor_Major_Isotope_Mass>
302.2245

$$$$
