BTM00001
  CDK     09122622082D

 22 25  0  0  1  0  0  0  0  0999 V2000
   -5.5789    0.4402    0.0000 C   0  0  0  0  0  0  0  0  0  0  0  0
   -4.2800   -0.3100    0.0000 C   0  0  2  0  0  0  0  0  0  0  0  0
   -2.9800    0.4400    0.0000 C   0  0  0  0  0  0  0  0  0  0  0  0
   -1.6800   -0.3100    0.0000 C   0  0  1  0  0  0  0  0  0  0  0  0
   -1.6800    1.1900    0.0000 C   0  0  0  0  0  0  0  0  0  0  0  0
   -1.6800   -1.8100    0.0000 C   0  0  1  0  0  0  0  0  0  0  0  0
   -0.3800   -2.5600    0.0000 C   0  0  0  0  0  0  0  0  0  0  0  0
    0.9200   -1.8100    0.0000 C   0  0  0  0  0  0  0  0  0  0  0  0
    0.9200   -0.3100    0.0000 C   0  0  2  0  0  0  0  0  0  0  0  0
   -0.3800    0.4400    0.0000 C   0  0  2  0  0  0  0  0  0  0  0  0
   -0.3800    1.9400    0.0000 C   0  0  0  0  0  0  0  0  0  0  0  0
    0.9200    2.6900    0.0000 C   0  0  0  0  0  0  0  0  0  0  0  0
    2.2200    1.9400    0.0000 C   0  0  2  0  0  0  0  0  0  0  0  0
    2.3787    3.4316    0.0000 C   0  0  0  0  0  0  0  0  0  0  0  0
    3.6500    2.4000    0.0000 C   0  0  0  0  0  0  0  0  0  0  0  0
    4.1153    3.8260    0.0000 O   0  0  0  0  0  0  0  0  0  0  0  0
    4.5300    1.1900    0.0000 C   0  0  0  0  0  0  0  0  0  0  0  0
    3.6500   -0.0200    0.0000 C   0  0  0  0  0  0  0  0  0  0  0  0
    2.2200    0.4400    0.0000 C   0  0  1  0  0  0  0  0  0  0  0  0
   -2.9800   -2.5600    0.0000 C   0  0  0  0  0  0  0  0  0  0  0  0
   -4.2800   -1.8100    0.0000 C   0  0  0  0  0  0  0  0  0  0  0  0
   -5.5789   -2.5602    0.0000 O   0  0  0  0  0  0  0  0  0  0  0  0
  2  1  1  6  0  0  0
  2  3  1  0  0  0  0
  3  4  1  0  0  0  0
  4  5  1  1  0  0  0
  4  6  1  0  0  0  0
  6  7  1  1  0  0  0
  7  8  1  0  0  0  0
  9  8  1  6  0  0  0
  9 10  1  0  0  0  0
  4 10  1  0  0  0  0
 10 11  1  1  0  0  0
 11 12  1  0  0  0  0
 12 13  1  0  0  0  0
 13 14  1  1  0  0  0
 13 15  1  0  0  0  0
 15 16  2  0  0  0  0
 15 17  1  0  0  0  0
 17 18  1  0  0  0  0
 19 18  1  1  0  0  0
  9 19  1  0  0  0  0
 13 19  1  0  0  0  0
  6 20  1  0  0  0  0
 20 21  1  0  0  0  0
  2 21  1  0  0  0  0
 21 22  2  0  0  0  0
M  END
> <InChI>
InChI=1S/C20H30O2/c1-12-11-20(3)13(10-17(12)21)4-5-14-15-6-7-18(22)19(15,2)9-8-16(14)20/h12-16H,4-11H2,1-3H3/t12-,13+,14+,15+,16+,19+,20+/m1/s1

> <InChIKey>
RVSSFXUENQNQJK-ROGQGFJNSA-N

> <SMILES>
C[C@@H]1C[C@@]2(C)[C@@H](CC[C@@H]3[C@@H]2CC[C@]4(C)C(=O)CC[C@@H]34)CC1=O

> <Synonyms>


> <PUBCHEM_CID>


> <Molecular_formula>
C20H30O2

> <Major_Isotope_Mass>
302.2245802

> <ALogP>
3.584899999999998

> <Lipinski_Violations>
0

> <Insecticide_Likeness_Violations>
0

> <Post_Em_Herbicide_Likeness_Violations>
0

> <Metabolite_ID>
BTM00001

> <Reaction>
Dehydrogenation of 17-beta-hydroxysteroid

> <Reaction_ID>
BTMR0370

> <Enzyme(s)>
EC 1.1.1.239

> <Biosystem>
HUMAN

> <Precursor_ID>


> <Precursor_SMILES>
C[C@@H]1C[C@@]2(C)[C@@H](CC[C@@H]3[C@@H]2CC[C@]4(C)[C@@H](O)CC[C@@H]34)CC1=O

> <Precursor_InChI>
InChI=1S/C20H32O2/c1-12-11-20(3)13(10-17(12)21)4-5-14-15-6-7-18(22)19(15,2)9-8-16(14)20/h12-16,18,22H,4-11H2,1-3H3/t12-,13+,14+,15+,16+,18+,19+,20+/m1/s1

> <Precursor_InChIKey>
IKXILDNPCZPPRV-RFMGOVQKSA-N

> <Precursor_ALogP>


> <Precursor_Major_Isotope_Mass>
304.2402

$$$$
BTM00002
  CDK     09122622082D

 22 25  0  0  1  0  0  0  0  0999 V2000
   -5.5789    0.4402    0.0000 C   0  0  0  0  0  0  0  0  0  0  0  0
   -4.2800   -0.3100    0.0000 C   0  0  2  0  0  0  0  0  0  0  0  0
   -2.9800    0.4400    0.0000 C   0  0  0  0  0  0  0  0  0  0  0  0
   -1.6800   -0.3100    0.0000 C   0  0  1  0  0  0  0  0  0  0  0  0
   -1.6800    1.1900    0.0000 C   0  0  0  0  0  0  0  0  0  0  0  0
   -1.6800   -1.8100    0.0000 C   0  0  0  0  0  5  0  0  0  0  0  0
   -0.3800   -2.5600    0.0000 C   0  0  0  0  0  0  0  0  0  0  0  0
    0.9200   -1.8100    0.0000 C   0  0  0  0  0  0  0  0  0  0  0  0
    0.9200   -0.3100    0.0000 C   0  0  2  0  0  0  0  0  0  0  0  0
   -0.3800    0.4400    0.0000 C   0  0  2  0  0  0  0  0  0  0  0  0
   -0.3800    1.9400    0.0000 C   0  0  0  0  0  0  0  0  0  0  0  0
    0.9200    2.6900    0.0000 C   0  0  0  0  0  0  0  0  0  0  0  0
    2.2200    1.9400    0.0000 C   0  0  2  0  0  0  0  0  0  0  0  0
    2.3787    3.4316    0.0000 C   0  0  0  0  0  0  0  0  0  0  0  0
    3.6500    2.4000    0.0000 C   0  0  1  0  0  0  0  0  0  0  0  0
    4.1153    3.8260    0.0000 O   0  0  0  0  0  0  0  0  0  0  0  0
    4.5300    1.1900    0.0000 C   0  0  0  0  0  0  0  0  0  0  0  0
    3.6500   -0.0200    0.0000 C   0  0  0  0  0  0  0  0  0  0  0  0
    2.2200    0.4400    0.0000 C   0  0  1  0  0  0  0  0  0  0  0  0
   -2.9800   -2.5600    0.0000 C   0  0  0  0  0  5  0  0  0  0  0  0
   -4.2800   -1.8100    0.0000 C   0  0  0  0  0  0  0  0  0  0  0  0
   -5.5789   -2.5602    0.0000 O   0  0  0  0  0  0  0  0  0  0  0  0
  2  1  1  6  0  0  0
  2  3  1  0  0  0  0
  3  4  1  0  0  0  0
  4  5  1  1  0  0  0
  4  6  1  0  0  0  0
  6  7  1  0  0  0  0
  7  8  1  0  0  0  0
  9  8  1  6  0  0  0
  9 10  1  0  0  0  0
  4 10  1  0  0  0  0
 10 11  1  1  0  0  0
 11 12  1  0  0  0  0
 12 13  1  0  0  0  0
 13 14  1  1  0  0  0
 13 15  1  0  0  0  0
 15 16  1  1  0  0  0
 15 17  1  0  0  0  0
 17 18  1  0  0  0  0
 19 18  1  1  0  0  0
  9 19  1  0  0  0  0
 13 19  1  0  0  0  0
  6 20  2  0  0  0  0
 20 21  1  0  0  0  0
  2 21  1  0  0  0  0
 21 22  2  0  0  0  0
M  END
> <InChI>
InChI=1S/C20H32O2/c1-12-11-20(3)13(10-17(12)21)4-5-14-15-6-7-18(22)19(15,2)9-8-16(14)20/h12-16,18,22H,4-11H2,1-3H3/t12-,14+,15+,16+,18+,19+,20+/m1/s1

> <InChIKey>
IKXILDNPCZPPRV-NSXXLHRISA-N

> <SMILES>
C[C@@H]1C[C@@]2(C)[CH](CC[C@@H]3[C@@H]2CC[C@]4(C)[C@@H](O)CC[C@@H]34)=[CH2]C1=O

> <Synonyms>


> <PUBCHEM_CID>


> <Molecular_formula>
C20H32O2

> <Major_Isotope_Mass>
304.240230264

> <ALogP>
3.523600000000002

> <Lipinski_Violations>
0

> <Insecticide_Likeness_Violations>
0

> <Post_Em_Herbicide_Likeness_Violations>
0

> <Metabolite_ID>
BTM00002

> <Reaction>
Dehydrogenation of 3-oxo-5-alpha-steroid

> <Reaction_ID>
BTMR0377

> <Enzyme(s)>
EC 1.3.1.22

> <Biosystem>
HUMAN

> <Precursor_ID>


> <Precursor_SMILES>
C[C@@H]1C[C@@]2(C)[C@@H](CC[C@@H]3[C@@H]2CC[C@]4(C)[C@@H](O)CC[C@@H]34)CC1=O

> <Precursor_InChI>
InChI=1S/C20H32O2/c1-12-11-20(3)13(10-17(12)21)4-5-14-15-6-7-18(22)19(15,2)9-8-16(14)20/h12-16,18,22H,4-11H2,1-3H3/t12-,13+,14+,15+,16+,18+,19+,20+/m1/s1

> <Precursor_InChIKey>
IKXILDNPCZPPRV-RFMGOVQKSA-N

> <Precursor_ALogP>


> <Precursor_Major_Isotope_Mass>
304.2402

$$$$
BTM00003
  CDK     09122622082D

 23 26  0  0  1  0  0  0  0  0999 V2000
   -5.5789    0.4402    0.0000 C   0  0  0  0  0  0  0  0  0  0  0  0
   -4.2800   -0.3100    0.0000 C   0  0  2  0  0  0  0  0  0  0  0  0
   -2.9800    0.4400    0.0000 C   0  0  0  0  0  0  0  0  0  0  0  0
   -1.6800   -0.3100    0.0000 C   0  0  1  0  0  0  0  0  0  0  0  0
   -1.6800    1.1900    0.0000 C   0  0  0  0  0  0  0  0  0  0  0  0
   -1.6800   -1.8100    0.0000 C   0  0  1  0  0  0  0  0  0  0  0  0
   -0.3800   -2.5600    0.0000 C   0  0  0  0  0  0  0  0  0  0  0  0
    0.9200   -1.8100    0.0000 C   0  0  0  0  0  0  0  0  0  0  0  0
    0.9200   -0.3100    0.0000 C   0  0  2  0  0  0  0  0  0  0  0  0
   -0.3800    0.4400    0.0000 C   0  0  2  0  0  0  0  0  0  0  0  0
   -0.3800    1.9400    0.0000 C   0  0  0  0  0  0  0  0  0  0  0  0
    0.9200    2.6900    0.0000 C   0  0  0  0  0  0  0  0  0  0  0  0
    2.2200    1.9400    0.0000 C   0  0  2  0  0  0  0  0  0  0  0  0
    2.3787    3.4316    0.0000 C   0  0  0  0  0  0  0  0  0  0  0  0
    3.6500    2.4000    0.0000 C   0  0  1  0  0  0  0  0  0  0  0  0
    4.1153    3.8260    0.0000 O   0  0  0  0  0  0  0  0  0  0  0  0
    4.5300    1.1900    0.0000 C   0  0  0  0  0  0  0  0  0  0  0  0
    3.6500   -0.0200    0.0000 C   0  0  0  0  0  0  0  0  0  0  0  0
    2.2200    0.4400    0.0000 C   0  0  1  0  0  0  0  0  0  0  0  0
   -2.9800   -2.5600    0.0000 C   0  0  0  0  0  0  0  0  0  0  0  0
   -4.2800   -1.8100    0.0000 C   0  0  0  0  0  0  0  0  0  0  0  0
   -5.5789   -2.5602    0.0000 O   0  0  0  0  0  0  0  0  0  0  0  0
   -1.6789    2.6902    0.0000 O   0  0  0  0  0  0  0  0  0  0  0  0
  2  1  1  6  0  0  0
  2  3  1  0  0  0  0
  3  4  1  0  0  0  0
  4  5  1  1  0  0  0
  4  6  1  0  0  0  0
  6  7  1  1  0  0  0
  7  8  1  0  0  0  0
  9  8  1  6  0  0  0
  9 10  1  0  0  0  0
  4 10  1  0  0  0  0
 10 11  1  1  0  0  0
 11 12  1  0  0  0  0
 12 13  1  0  0  0  0
 13 14  1  1  0  0  0
 13 15  1  0  0  0  0
 15 16  1  1  0  0  0
 15 17  1  0  0  0  0
 17 18  1  0  0  0  0
 19 18  1  1  0  0  0
  9 19  1  0  0  0  0
 13 19  1  0  0  0  0
  6 20  1  0  0  0  0
 20 21  1  0  0  0  0
  2 21  1  0  0  0  0
 21 22  2  0  0  0  0
 23 11  1  0  0  0  0
M  END
> <InChI>
InChI=1S/C20H32O3/c1-11-9-19(2)12(8-15(11)21)4-5-13-14-6-7-17(23)20(14,3)10-16(22)18(13)19/h11-14,16-18,22-23H,4-10H2,1-3H3/t11-,12+,13+,14+,16?,17+,18-,19+,20+/m1/s1

> <InChIKey>
ACHVPRMUSGKURD-SEWVRNJXSA-N

> <SMILES>
C[C@@H]1C[C@@]2(C)[C@@H](CC[C@@H]3[C@@H]2C(C[C@]4(C)[C@@H](O)CC[C@@H]34)O)CC1=O

> <Synonyms>


> <PUBCHEM_CID>


> <Molecular_formula>
C20H32O3

> <Major_Isotope_Mass>
320.23514488399996

> <ALogP>
2.454999999999998

> <Lipinski_Violations>
0

> <Insecticide_Likeness_Violations>
0

> <Post_Em_Herbicide_Likeness_Violations>
0

> <Metabolite_ID>
BTM00003

> <Reaction>
11-beta-Hydroxylation of sterol

> <Reaction_ID>
BTMR0406

> <Enzyme(s)>
EC 1.14.15.4

> <Biosystem>
HUMAN

> <Precursor_ID>


> <Precursor_SMILES>
C[C@@H]1C[C@@]2(C)[C@@H](CC[C@@H]3[C@@H]2CC[C@]4(C)[C@@H](O)CC[C@@H]34)CC1=O

> <Precursor_InChI>
InChI=1S/C20H32O2/c1-12-11-20(3)13(10-17(12)21)4-5-14-15-6-7-18(22)19(15,2)9-8-16(14)20/h12-16,18,22H,4-11H2,1-3H3/t12-,13+,14+,15+,16+,18+,19+,20+/m1/s1

> <Precursor_InChIKey>
IKXILDNPCZPPRV-RFMGOVQKSA-N

> <Precursor_ALogP>


> <Precursor_Major_Isotope_Mass>
304.2402

$$$$
BTM00004
  CDK     09122622082D

 34 38  0  0  1  0  0  0  0  0999 V2000
   -5.2589    0.1502    0.0000 C   0  0  0  0  0  0  0  0  0  0  0  0
   -3.9600   -0.6000    0.0000 C   0  0  2  0  0  0  0  0  0  0  0  0
   -2.6600    0.1500    0.0000 C   0  0  0  0  0  0  0  0  0  0  0  0
   -1.3600   -0.6000    0.0000 C   0  0  1  0  0  0  0  0  0  0  0  0
   -1.3600    0.9000    0.0000 C   0  0  0  0  0  0  0  0  0  0  0  0
   -1.3600   -2.1000    0.0000 C   0  0  1  0  0  0  0  0  0  0  0  0
   -0.0600   -2.8500    0.0000 C   0  0  0  0  0  0  0  0  0  0  0  0
    1.2400   -2.1000    0.0000 C   0  0  0  0  0  0  0  0  0  0  0  0
    1.2400   -0.6000    0.0000 C   0  0  2  0  0  0  0  0  0  0  0  0
   -0.0600    0.1500    0.0000 C   0  0  2  0  0  0  0  0  0  0  0  0
   -0.0600    1.6500    0.0000 C   0  0  0  0  0  0  0  0  0  0  0  0
    1.2400    2.4000    0.0000 C   0  0  0  0  0  0  0  0  0  0  0  0
    2.5400    1.6500    0.0000 C   0  0  2  0  0  0  0  0  0  0  0  0
    2.6972    3.1417    0.0000 C   0  0  0  0  0  0  0  0  0  0  0  0
    3.9600    2.1100    0.0000 C   0  0  1  0  0  0  0  0  0  0  0  0
    4.4238    3.5365    0.0000 O   0  0  0  0  0  0  0  0  0  0  0  0
    4.8400    0.9000    0.0000 C   0  0  0  0  0  0  0  0  0  0  0  0
    3.9600   -0.3100    0.0000 C   0  0  0  0  0  0  0  0  0  0  0  0
    2.5400    0.1500    0.0000 C   0  0  1  0  0  0  0  0  0  0  0  0
   -2.6600   -2.8500    0.0000 C   0  0  0  0  0  0  0  0  0  0  0  0
   -3.9600   -2.1000    0.0000 C   0  0  0  0  0  0  0  0  0  0  0  0
   -5.2589   -2.8502    0.0000 O   0  0  0  0  0  0  0  0  0  0  0  0
    5.3578    6.3824    0.0000 O   0  0  0  0  0  0  0  0  0  0  0  0
    6.3567    5.2634    0.0000 C   0  0  0  0  0  0  0  0  0  0  0  0
    7.8481    5.5729    0.0000 C   0  0  0  0  0  0  0  0  0  0  0  0
    8.3216    6.9962    0.0000 O   0  0  0  0  0  0  0  0  0  0  0  0
    8.8455    4.4447    0.0000 C   0  0  0  0  0  0  0  0  0  0  0  0
   10.3147    4.7472    0.0000 O   0  0  0  0  0  0  0  0  0  0  0  0
    8.3799    3.0293    0.0000 C   0  0  0  0  0  0  0  0  0  0  0  0
    6.9106    2.7231    0.0000 O   0  0  0  0  0  0  0  0  0  0  0  0
    5.8911    3.8481    0.0000 C   0  0  0  0  0  0  0  0  0  0  0  0
    9.3793    1.9108    0.0000 C   0  0  0  0  0  0  0  0  0  0  0  0
   10.8477    2.2171    0.0000 O   0  0  0  0  0  0  0  0  0  0  0  0
    8.9104    0.4860    0.0000 O   0  0  0  0  0  0  0  0  0  0  0  0
  2  1  1  6  0  0  0
  2  3  1  0  0  0  0
  3  4  1  0  0  0  0
  4  5  1  1  0  0  0
  4  6  1  0  0  0  0
  6  7  1  1  0  0  0
  7  8  1  0  0  0  0
  9  8  1  6  0  0  0
  9 10  1  0  0  0  0
  4 10  1  0  0  0  0
 10 11  1  1  0  0  0
 11 12  1  0  0  0  0
 12 13  1  0  0  0  0
 13 14  1  1  0  0  0
 13 15  1  0  0  0  0
 15 16  1  1  0  0  0
 15 17  1  0  0  0  0
 17 18  1  0  0  0  0
 19 18  1  1  0  0  0
  9 19  1  0  0  0  0
 13 19  1  0  0  0  0
  6 20  1  0  0  0  0
 20 21  1  0  0  0  0
  2 21  1  0  0  0  0
 21 22  2  0  0  0  0
 23 24  1  0  0  0  0
 24 25  1  0  0  0  0
 25 26  1  0  0  0  0
 25 27  1  0  0  0  0
 27 28  1  0  0  0  0
 27 29  1  0  0  0  0
 29 30  1  0  0  0  0
 30 31  1  0  0  0  0
 24 31  1  0  0  0  0
 31 16  1  0  0  0  0
 29 32  1  0  0  0  0
 32 33  1  0  0  0  0
 32 34  2  0  0  0  0
M  END
> <InChI>
InChI=1S/C26H40O8/c1-12-11-26(3)13(10-17(12)27)4-5-14-15-6-7-18(25(15,2)9-8-16(14)26)33-24-21(30)19(28)20(29)22(34-24)23(31)32/h12-16,18-22,24,28-30H,4-11H2,1-3H3,(H,31,32)/t12-,13+,14+,15+,16+,18+,19?,20?,21?,22?,24?,25+,26+/m1/s1

> <InChIKey>
SZBROTWFZYMYIF-CVSGJMFSSA-N

> <SMILES>
C[C@@H]1C[C@@]2(C)[C@@H](CC[C@@H]3[C@@H]2CC[C@]4(C)[C@@H](OC5OC(C(C(C5O)O)O)C(O)=O)CC[C@@H]34)CC1=O

> <Synonyms>


> <PUBCHEM_CID>


> <Molecular_formula>
C26H40O8

> <Major_Isotope_Mass>
480.27231824

> <ALogP>
2.086399999999998

> <Lipinski_Violations>
0

> <Insecticide_Likeness_Violations>
1

> <Post_Em_Herbicide_Likeness_Violations>
1

> <Metabolite_ID>
BTM00004

> <Reaction>
17-OH-Glucuronidation of sterol

> <Reaction_ID>
BTMR0163

> <Enzyme(s)>
EC 2.4.1.17

> <Biosystem>
HUMAN

> <Precursor_ID>


> <Precursor_SMILES>
C[C@@H]1C[C@@]2(C)[C@@H](CC[C@@H]3[C@@H]2CC[C@]4(C)[C@@H](O)CC[C@@H]34)CC1=O

> <Precursor_InChI>
InChI=1S/C20H32O2/c1-12-11-20(3)13(10-17(12)21)4-5-14-15-6-7-18(22)19(15,2)9-8-16(14)20/h12-16,18,22H,4-11H2,1-3H3/t12-,13+,14+,15+,16+,18+,19+,20+/m1/s1

> <Precursor_InChIKey>
IKXILDNPCZPPRV-RFMGOVQKSA-N

> <Precursor_ALogP>


> <Precursor_Major_Isotope_Mass>
304.2402

$$$$
BTM00005
  CDK     09122622082D

 23 26  0  0  1  0  0  0  0  0999 V2000
   -5.5789    0.4402    0.0000 C   0  0  0  0  0  0  0  0  0  0  0  0
   -4.2800   -0.3100    0.0000 C   0  0  2  0  0  0  0  0  0  0  0  0
   -2.9800    0.4400    0.0000 C   0  0  0  0  0  0  0  0  0  0  0  0
   -1.6800   -0.3100    0.0000 C   0  0  1  0  0  0  0  0  0  0  0  0
   -1.6800    1.1900    0.0000 C   0  0  0  0  0  0  0  0  0  0  0  0
   -1.6800   -1.8100    0.0000 C   0  0  1  0  0  0  0  0  0  0  0  0
   -0.3800   -2.5600    0.0000 C   0  0  0  0  0  0  0  0  0  0  0  0
    0.9200   -1.8100    0.0000 C   0  0  0  0  0  0  0  0  0  0  0  0
    0.9200   -0.3100    0.0000 C   0  0  2  0  0  0  0  0  0  0  0  0
   -0.3800    0.4400    0.0000 C   0  0  2  0  0  0  0  0  0  0  0  0
   -0.3800    1.9400    0.0000 C   0  0  0  0  0  0  0  0  0  0  0  0
    0.9200    2.6900    0.0000 C   0  0  0  0  0  0  0  0  0  0  0  0
    2.2200    1.9400    0.0000 C   0  0  2  0  0  0  0  0  0  0  0  0
    2.3787    3.4316    0.0000 C   0  0  0  0  0  0  0  0  0  0  0  0
    3.6500    2.4000    0.0000 C   0  0  1  0  0  0  0  0  0  0  0  0
    4.1153    3.8260    0.0000 O   0  0  0  0  0  0  0  0  0  0  0  0
    4.5300    1.1900    0.0000 C   0  0  0  0  0  0  0  0  0  0  0  0
    3.6500   -0.0200    0.0000 C   0  0  0  0  0  0  0  0  0  0  0  0
    2.2200    0.4400    0.0000 C   0  0  1  0  0  0  0  0  0  0  0  0
   -2.9800   -2.5600    0.0000 C   0  0  0  0  0  0  0  0  0  0  0  0
   -4.2800   -1.8100    0.0000 C   0  0  0  0  0  0  0  0  0  0  0  0
   -5.5789   -2.5602    0.0000 O   0  0  0  0  0  0  0  0  0  0  0  0
    6.0300    1.1900    0.0000 O   0  0  0  0  0  0  0  0  0  0  0  0
  2  1  1  6  0  0  0
  2  3  1  0  0  0  0
  3  4  1  0  0  0  0
  4  5  1  1  0  0  0
  4  6  1  0  0  0  0
  6  7  1  1  0  0  0
  7  8  1  0  0  0  0
  9  8  1  6  0  0  0
  9 10  1  0  0  0  0
  4 10  1  0  0  0  0
 10 11  1  1  0  0  0
 11 12  1  0  0  0  0
 12 13  1  0  0  0  0
 13 14  1  1  0  0  0
 13 15  1  0  0  0  0
 15 16  1  1  0  0  0
 15 17  1  0  0  0  0
 17 18  1  0  0  0  0
 19 18  1  1  0  0  0
  9 19  1  0  0  0  0
 13 19  1  0  0  0  0
  6 20  1  0  0  0  0
 20 21  1  0  0  0  0
  2 21  1  0  0  0  0
 21 22  2  0  0  0  0
 23 17  1  0  0  0  0
M  END
> <InChI>
InChI=1S/C20H32O3/c1-11-10-20(3)12(8-16(11)21)4-5-13-14(20)6-7-19(2)15(13)9-17(22)18(19)23/h11-15,17-18,22-23H,4-10H2,1-3H3/t11-,12+,13-,14+,15+,17?,18+,19+,20+/m1/s1

> <InChIKey>
AOBJJIQCLHDHTP-WRKONZNESA-N

> <SMILES>
C[C@@H]1C[C@@]2(C)[C@@H](CC[C@@H]3[C@@H]2CC[C@]4(C)[C@@H](O)C(C[C@@H]34)O)CC1=O

> <Synonyms>


> <PUBCHEM_CID>


> <Molecular_formula>
C20H32O3

> <Major_Isotope_Mass>
320.23514488399996

> <ALogP>
2.657499999999999

> <Lipinski_Violations>
0

> <Insecticide_Likeness_Violations>
0

> <Post_Em_Herbicide_Likeness_Violations>
0

> <Metabolite_ID>
BTM00005

> <Reaction>
16-Hydroxylation of sterol

> <Reaction_ID>
BTMR0407

> <Enzyme(s)>
CYP1A2
CYP2A6
CYP2B6
CYP2C8
CYP2C9
CYP2C19
CYP2D6
CYP2E1
CYP3A4

> <Biosystem>
HUMAN

> <Precursor_ID>


> <Precursor_SMILES>
C[C@@H]1C[C@@]2(C)[C@@H](CC[C@@H]3[C@@H]2CC[C@]4(C)[C@@H](O)CC[C@@H]34)CC1=O

> <Precursor_InChI>
InChI=1S/C20H32O2/c1-12-11-20(3)13(10-17(12)21)4-5-14-15-6-7-18(22)19(15,2)9-8-16(14)20/h12-16,18,22H,4-11H2,1-3H3/t12-,13+,14+,15+,16+,18+,19+,20+/m1/s1

> <Precursor_InChIKey>
IKXILDNPCZPPRV-RFMGOVQKSA-N

> <Precursor_ALogP>


> <Precursor_Major_Isotope_Mass>
304.2402

$$$$
BTM00006
  CDK     09122622082D

 23 26  0  0  1  0  0  0  0  0999 V2000
   -4.7927    1.0996    0.0000 C   0  0  0  0  0  0  0  0  0  0  0  0
   -4.2800   -0.3100    0.0000 C   0  0  0  0  0  0  0  0  0  0  0  0
   -2.9800    0.4400    0.0000 C   0  0  0  0  0  0  0  0  0  0  0  0
   -1.6800   -0.3100    0.0000 C   0  0  1  0  0  0  0  0  0  0  0  0
   -1.6800    1.1900    0.0000 C   0  0  0  0  0  0  0  0  0  0  0  0
   -1.6800   -1.8100    0.0000 C   0  0  1  0  0  0  0  0  0  0  0  0
   -0.3800   -2.5600    0.0000 C   0  0  0  0  0  0  0  0  0  0  0  0
    0.9200   -1.8100    0.0000 C   0  0  0  0  0  0  0  0  0  0  0  0
    0.9200   -0.3100    0.0000 C   0  0  2  0  0  0  0  0  0  0  0  0
   -0.3800    0.4400    0.0000 C   0  0  2  0  0  0  0  0  0  0  0  0
   -0.3800    1.9400    0.0000 C   0  0  0  0  0  0  0  0  0  0  0  0
    0.9200    2.6900    0.0000 C   0  0  0  0  0  0  0  0  0  0  0  0
    2.2200    1.9400    0.0000 C   0  0  2  0  0  0  0  0  0  0  0  0
    2.3787    3.4316    0.0000 C   0  0  0  0  0  0  0  0  0  0  0  0
    3.6500    2.4000    0.0000 C   0  0  1  0  0  0  0  0  0  0  0  0
    4.1153    3.8260    0.0000 O   0  0  0  0  0  0  0  0  0  0  0  0
    4.5300    1.1900    0.0000 C   0  0  0  0  0  0  0  0  0  0  0  0
    3.6500   -0.0200    0.0000 C   0  0  0  0  0  0  0  0  0  0  0  0
    2.2200    0.4400    0.0000 C   0  0  1  0  0  0  0  0  0  0  0  0
   -2.9800   -2.5600    0.0000 C   0  0  0  0  0  0  0  0  0  0  0  0
   -4.2800   -1.8100    0.0000 C   0  0  0  0  0  0  0  0  0  0  0  0
   -5.5789   -2.5602    0.0000 O   0  0  0  0  0  0  0  0  0  0  0  0
   -5.7572   -0.5703    0.0000 O   0  0  0  0  0  0  0  0  0  0  0  0
  2  1  1  0  0  0  0
  2  3  1  0  0  0  0
  3  4  1  0  0  0  0
  4  5  1  1  0  0  0
  4  6  1  0  0  0  0
  6  7  1  1  0  0  0
  7  8  1  0  0  0  0
  9  8  1  6  0  0  0
  9 10  1  0  0  0  0
  4 10  1  0  0  0  0
 10 11  1  1  0  0  0
 11 12  1  0  0  0  0
 12 13  1  0  0  0  0
 13 14  1  1  0  0  0
 13 15  1  0  0  0  0
 15 16  1  1  0  0  0
 15 17  1  0  0  0  0
 17 18  1  0  0  0  0
 19 18  1  1  0  0  0
  9 19  1  0  0  0  0
 13 19  1  0  0  0  0
  6 20  1  0  0  0  0
 20 21  1  0  0  0  0
  2 21  1  0  0  0  0
 21 22  2  0  0  0  0
 23  2  1  0  0  0  0
M  END
> <InChI>
InChI=1S/C20H32O3/c1-18-9-8-15-13(14(18)6-7-16(18)21)5-4-12-10-17(22)20(3,23)11-19(12,15)2/h12-16,21,23H,4-11H2,1-3H3/t12-,13-,14-,15-,16-,18-,19-,20?/m0/s1

> <InChIKey>
DNMOUFPNUKOAMB-JNNJJTPDSA-N

> <SMILES>
CC1(C[C@@]2(C)[C@@H](CC[C@@H]3[C@@H]2CC[C@]4(C)[C@@H](O)CC[C@@H]34)CC1=O)O

> <Synonyms>


> <PUBCHEM_CID>


> <Molecular_formula>
C20H32O3

> <Major_Isotope_Mass>
320.23514488399996

> <ALogP>
2.686399999999999

> <Lipinski_Violations>
0

> <Insecticide_Likeness_Violations>
0

> <Post_Em_Herbicide_Likeness_Violations>
0

> <Metabolite_ID>
BTM00006

> <Reaction>
2-Hydroxylation of sterol

> <Reaction_ID>
BTMR0398

> <Enzyme(s)>
CYP1A2
CYP2C19
CYP3A4

> <Biosystem>
HUMAN

> <Precursor_ID>


> <Precursor_SMILES>
C[C@@H]1C[C@@]2(C)[C@@H](CC[C@@H]3[C@@H]2CC[C@]4(C)[C@@H](O)CC[C@@H]34)CC1=O

> <Precursor_InChI>
InChI=1S/C20H32O2/c1-12-11-20(3)13(10-17(12)21)4-5-14-15-6-7-18(22)19(15,2)9-8-16(14)20/h12-16,18,22H,4-11H2,1-3H3/t12-,13+,14+,15+,16+,18+,19+,20+/m1/s1

> <Precursor_InChIKey>
IKXILDNPCZPPRV-RFMGOVQKSA-N

> <Precursor_ALogP>


> <Precursor_Major_Isotope_Mass>
304.2402

$$$$
BTM00007
  CDK     09122622082D

 23 26  0  0  1  0  0  0  0  0999 V2000
   -5.5789    0.4402    0.0000 C   0  0  0  0  0  0  0  0  0  0  0  0
   -4.2800   -0.3100    0.0000 C   0  0  2  0  0  0  0  0  0  0  0  0
   -2.9800    0.4400    0.0000 C   0  0  0  0  0  0  0  0  0  0  0  0
   -1.6800   -0.3100    0.0000 C   0  0  1  0  0  0  0  0  0  0  0  0
   -1.6800    1.1900    0.0000 C   0  0  0  0  0  0  0  0  0  0  0  0
   -1.6800   -1.8100    0.0000 C   0  0  1  0  0  0  0  0  0  0  0  0
   -0.3800   -2.5600    0.0000 C   0  0  0  0  0  0  0  0  0  0  0  0
    0.9200   -1.8100    0.0000 C   0  0  0  0  0  0  0  0  0  0  0  0
    0.9200   -0.3100    0.0000 C   0  0  2  0  0  0  0  0  0  0  0  0
   -0.3800    0.4400    0.0000 C   0  0  2  0  0  0  0  0  0  0  0  0
   -0.3800    1.9400    0.0000 C   0  0  0  0  0  0  0  0  0  0  0  0
    0.9200    2.6900    0.0000 C   0  0  0  0  0  0  0  0  0  0  0  0
    2.2200    1.9400    0.0000 C   0  0  2  0  0  0  0  0  0  0  0  0
    2.3787    3.4316    0.0000 C   0  0  0  0  0  0  0  0  0  0  0  0
    3.6500    2.4000    0.0000 C   0  0  1  0  0  0  0  0  0  0  0  0
    4.1153    3.8260    0.0000 O   0  0  0  0  0  0  0  0  0  0  0  0
    4.5300    1.1900    0.0000 C   0  0  0  0  0  0  0  0  0  0  0  0
    3.6500   -0.0200    0.0000 C   0  0  0  0  0  0  0  0  0  0  0  0
    2.2200    0.4400    0.0000 C   0  0  1  0  0  0  0  0  0  0  0  0
   -2.9800   -2.5600    0.0000 C   0  0  0  0  0  0  0  0  0  0  0  0
   -4.2800   -1.8100    0.0000 C   0  0  0  0  0  0  0  0  0  0  0  0
   -5.5789   -2.5602    0.0000 O   0  0  0  0  0  0  0  0  0  0  0  0
   -2.9800   -4.0600    0.0000 O   0  0  0  0  0  0  0  0  0  0  0  0
  2  1  1  6  0  0  0
  2  3  1  0  0  0  0
  3  4  1  0  0  0  0
  4  5  1  1  0  0  0
  4  6  1  0  0  0  0
  6  7  1  1  0  0  0
  7  8  1  0  0  0  0
  9  8  1  6  0  0  0
  9 10  1  0  0  0  0
  4 10  1  0  0  0  0
 10 11  1  1  0  0  0
 11 12  1  0  0  0  0
 12 13  1  0  0  0  0
 13 14  1  1  0  0  0
 13 15  1  0  0  0  0
 15 16  1  1  0  0  0
 15 17  1  0  0  0  0
 17 18  1  0  0  0  0
 19 18  1  1  0  0  0
  9 19  1  0  0  0  0
 13 19  1  0  0  0  0
  6 20  1  0  0  0  0
 20 21  1  0  0  0  0
  2 21  1  0  0  0  0
 21 22  2  0  0  0  0
 23 20  1  0  0  0  0
M  END
> <InChI>
InChI=1S/C20H32O3/c1-11-10-20(3)14-8-9-19(2)13(6-7-16(19)21)12(14)4-5-15(20)18(23)17(11)22/h11-16,18,21,23H,4-10H2,1-3H3/t11-,12+,13+,14+,15+,16+,18?,19+,20-/m1/s1

> <InChIKey>
IJROHRQGLISDER-PXYBFGAASA-N

> <SMILES>
C[C@@H]1C[C@@]2(C)[C@@H](CC[C@@H]3[C@@H]2CC[C@]4(C)[C@@H](O)CC[C@@H]34)C(C1=O)O

> <Synonyms>


> <PUBCHEM_CID>


> <Molecular_formula>
C20H32O3

> <Major_Isotope_Mass>
320.23514488399996

> <ALogP>
3.011400000000001

> <Lipinski_Violations>
0

> <Insecticide_Likeness_Violations>
0

> <Post_Em_Herbicide_Likeness_Violations>
0

> <Metabolite_ID>
BTM00007

> <Reaction>
4-Hydroxylation of sterol

> <Reaction_ID>
BTMR0400

> <Enzyme(s)>
CYP1A2
CYP3A4

> <Biosystem>
HUMAN

> <Precursor_ID>


> <Precursor_SMILES>
C[C@@H]1C[C@@]2(C)[C@@H](CC[C@@H]3[C@@H]2CC[C@]4(C)[C@@H](O)CC[C@@H]34)CC1=O

> <Precursor_InChI>
InChI=1S/C20H32O2/c1-12-11-20(3)13(10-17(12)21)4-5-14-15-6-7-18(22)19(15,2)9-8-16(14)20/h12-16,18,22H,4-11H2,1-3H3/t12-,13+,14+,15+,16+,18+,19+,20+/m1/s1

> <Precursor_InChIKey>
IKXILDNPCZPPRV-RFMGOVQKSA-N

> <Precursor_ALogP>


> <Precursor_Major_Isotope_Mass>
304.2402

$$$$
BTM00008
  CDK     09122622082D

 23 26  0  0  1  0  0  0  0  0999 V2000
   -5.5789    0.4402    0.0000 C   0  0  0  0  0  0  0  0  0  0  0  0
   -4.2800   -0.3100    0.0000 C   0  0  2  0  0  0  0  0  0  0  0  0
   -2.9800    0.4400    0.0000 C   0  0  0  0  0  0  0  0  0  0  0  0
   -1.6800   -0.3100    0.0000 C   0  0  1  0  0  0  0  0  0  0  0  0
   -1.6800    1.1900    0.0000 C   0  0  0  0  0  0  0  0  0  0  0  0
   -1.6800   -1.8100    0.0000 C   0  0  1  0  0  0  0  0  0  0  0  0
   -0.3800   -2.5600    0.0000 C   0  0  0  0  0  0  0  0  0  0  0  0
    0.9200   -1.8100    0.0000 C   0  0  0  0  0  0  0  0  0  0  0  0
    0.9200   -0.3100    0.0000 C   0  0  2  0  0  0  0  0  0  0  0  0
   -0.3800    0.4400    0.0000 C   0  0  2  0  0  0  0  0  0  0  0  0
   -0.3800    1.9400    0.0000 C   0  0  0  0  0  0  0  0  0  0  0  0
    0.9200    2.6900    0.0000 C   0  0  0  0  0  0  0  0  0  0  0  0
    2.2200    1.9400    0.0000 C   0  0  2  0  0  0  0  0  0  0  0  0
    2.3787    3.4316    0.0000 C   0  0  0  0  0  0  0  0  0  0  0  0
    3.6500    2.4000    0.0000 C   0  0  1  0  0  0  0  0  0  0  0  0
    4.1153    3.8260    0.0000 O   0  0  0  0  0  0  0  0  0  0  0  0
    4.5300    1.1900    0.0000 C   0  0  0  0  0  0  0  0  0  0  0  0
    3.6500   -0.0200    0.0000 C   0  0  0  0  0  0  0  0  0  0  0  0
    2.2200    0.4400    0.0000 C   0  0  1  0  0  0  0  0  0  0  0  0
   -2.9800   -2.5600    0.0000 C   0  0  0  0  0  0  0  0  0  0  0  0
   -4.2800   -1.8100    0.0000 C   0  0  0  0  0  0  0  0  0  0  0  0
   -5.5789   -2.5602    0.0000 O   0  0  0  0  0  0  0  0  0  0  0  0
   -0.3800   -4.0600    0.0000 O   0  0  0  0  0  0  0  0  0  0  0  0
  2  1  1  6  0  0  0
  2  3  1  0  0  0  0
  3  4  1  0  0  0  0
  4  5  1  1  0  0  0
  4  6  1  0  0  0  0
  6  7  1  0  0  0  0
  7  8  1  0  0  0  0
  9  8  1  6  0  0  0
  9 10  1  0  0  0  0
  4 10  1  0  0  0  0
 10 11  1  1  0  0  0
 11 12  1  0  0  0  0
 12 13  1  0  0  0  0
 13 14  1  1  0  0  0
 13 15  1  0  0  0  0
 15 16  1  1  0  0  0
 15 17  1  0  0  0  0
 17 18  1  0  0  0  0
 19 18  1  1  0  0  0
  9 19  1  0  0  0  0
 13 19  1  0  0  0  0
  6 20  1  1  0  0  0
 20 21  1  0  0  0  0
  2 21  1  0  0  0  0
 21 22  2  0  0  0  0
 23  7  1  0  0  0  0
M  END
> <InChI>
InChI=1S/C20H32O3/c1-11-10-20(3)14-6-7-19(2)13(4-5-18(19)23)12(14)8-17(22)15(20)9-16(11)21/h11-15,17-18,22-23H,4-10H2,1-3H3/t11-,12+,13+,14+,15-,17?,18+,19+,20-/m1/s1

> <InChIKey>
KZCXXTWHGHQJCK-XEVGRWEISA-N

> <SMILES>
C[C@@H]1C[C@@]2(C)[C@@H](C(C[C@@H]3[C@@H]2CC[C@]4(C)[C@@H](O)CC[C@@H]34)O)CC1=O

> <Synonyms>


> <PUBCHEM_CID>


> <Molecular_formula>
C20H32O3

> <Major_Isotope_Mass>
320.23514488399996

> <ALogP>
2.454999999999998

> <Lipinski_Violations>
0

> <Insecticide_Likeness_Violations>
0

> <Post_Em_Herbicide_Likeness_Violations>
0

> <Metabolite_ID>
BTM00008

> <Reaction>
6-Hydroxylation of sterol

> <Reaction_ID>
BTMR0402

> <Enzyme(s)>
CYP2A6
CYP2B6
CYP2C8
CYP2C9
CYP2C19
CYP2D6
CYP3A4

> <Biosystem>
HUMAN

> <Precursor_ID>


> <Precursor_SMILES>
C[C@@H]1C[C@@]2(C)[C@@H](CC[C@@H]3[C@@H]2CC[C@]4(C)[C@@H](O)CC[C@@H]34)CC1=O

> <Precursor_InChI>
InChI=1S/C20H32O2/c1-12-11-20(3)13(10-17(12)21)4-5-14-15-6-7-18(22)19(15,2)9-8-16(14)20/h12-16,18,22H,4-11H2,1-3H3/t12-,13+,14+,15+,16+,18+,19+,20+/m1/s1

> <Precursor_InChIKey>
IKXILDNPCZPPRV-RFMGOVQKSA-N

> <Precursor_ALogP>


> <Precursor_Major_Isotope_Mass>
304.2402

$$$$
BTM00009
  CDK     09122622082D

 23 26  0  0  1  0  0  0  0  0999 V2000
   -5.2589    0.1502    0.0000 C   0  0  0  0  0  0  0  0  0  0  0  0
   -3.9600   -0.6000    0.0000 C   0  0  2  0  0  0  0  0  0  0  0  0
   -2.6600    0.1500    0.0000 C   0  0  0  0  0  0  0  0  0  0  0  0
   -1.3600   -0.6000    0.0000 C   0  0  1  0  0  0  0  0  0  0  0  0
   -1.3600    0.9000    0.0000 C   0  0  0  0  0  0  0  0  0  0  0  0
   -1.3600   -2.1000    0.0000 C   0  0  1  0  0  0  0  0  0  0  0  0
   -0.0600   -2.8500    0.0000 C   0  0  0  0  0  0  0  0  0  0  0  0
    1.2400   -2.1000    0.0000 C   0  0  0  0  0  0  0  0  0  0  0  0
    1.2400   -0.6000    0.0000 C   0  0  2  0  0  0  0  0  0  0  0  0
   -0.0600    0.1500    0.0000 C   0  0  2  0  0  0  0  0  0  0  0  0
   -0.0600    1.6500    0.0000 C   0  0  0  0  0  0  0  0  0  0  0  0
    1.2400    2.4000    0.0000 C   0  0  0  0  0  0  0  0  0  0  0  0
    2.5400    1.6500    0.0000 C   0  0  2  0  0  0  0  0  0  0  0  0
    2.6972    3.1417    0.0000 C   0  0  0  0  0  0  0  0  0  0  0  0
    3.9600    2.1100    0.0000 C   0  0  1  0  0  0  0  0  0  0  0  0
    4.4238    3.5365    0.0000 O   0  0  0  0  0  0  0  0  0  0  0  0
    4.8400    0.9000    0.0000 C   0  0  0  0  0  0  0  0  0  0  0  0
    3.9600   -0.3100    0.0000 C   0  0  0  0  0  0  0  0  0  0  0  0
    2.5400    0.1500    0.0000 C   0  0  1  0  0  0  0  0  0  0  0  0
   -2.6600   -2.8500    0.0000 C   0  0  0  0  0  0  0  0  0  0  0  0
   -3.9600   -2.1000    0.0000 C   0  0  0  0  0  0  0  0  0  0  0  0
   -5.2589   -2.8502    0.0000 O   0  0  0  0  0  0  0  0  0  0  0  0
   -6.5581   -0.5996    0.0000 O   0  0  0  0  0  0  0  0  0  0  0  0
  2  1  1  6  0  0  0
  2  3  1  0  0  0  0
  3  4  1  0  0  0  0
  4  5  1  1  0  0  0
  4  6  1  0  0  0  0
  6  7  1  1  0  0  0
  7  8  1  0  0  0  0
  9  8  1  6  0  0  0
  9 10  1  0  0  0  0
  4 10  1  0  0  0  0
 10 11  1  1  0  0  0
 11 12  1  0  0  0  0
 12 13  1  0  0  0  0
 13 14  1  1  0  0  0
 13 15  1  0  0  0  0
 15 16  1  1  0  0  0
 15 17  1  0  0  0  0
 17 18  1  0  0  0  0
 19 18  1  1  0  0  0
  9 19  1  0  0  0  0
 13 19  1  0  0  0  0
  6 20  1  0  0  0  0
 20 21  1  0  0  0  0
  2 21  1  0  0  0  0
 21 22  2  0  0  0  0
 23  1  1  0  0  0  0
M  END
> <InChI>
InChI=1S/C20H32O3/c1-19-8-7-16-14(15(19)5-6-18(19)23)4-3-13-9-17(22)12(11-21)10-20(13,16)2/h12-16,18,21,23H,3-11H2,1-2H3/t12-,13-,14-,15-,16-,18-,19-,20-/m0/s1

> <InChIKey>
OKOKLFXLKDXQOK-VDBAHQDGSA-N

> <SMILES>
C([C@@H]1C[C@@]2(C)[C@@H](CC[C@@H]3[C@@H]2CC[C@]4(C)[C@@H](O)CC[C@@H]34)CC1=O)O

> <Synonyms>


> <PUBCHEM_CID>


> <Molecular_formula>
C20H32O3

> <Major_Isotope_Mass>
320.23514488399996

> <ALogP>
2.5336999999999974

> <Lipinski_Violations>
0

> <Insecticide_Likeness_Violations>
0

> <Post_Em_Herbicide_Likeness_Violations>
0

> <Metabolite_ID>
BTM00009

> <Reaction>
Hydroxylation of methyl carbon adjacent to aliphatic ring

> <Reaction_ID>
BTMR0054

> <Enzyme(s)>
CYP2B6
CYP2C8
CYP2C9
CYP2C19
CYP2D6
CYP3A4

> <Biosystem>
HUMAN

> <Precursor_ID>


> <Precursor_SMILES>
C[C@@H]1C[C@@]2(C)[C@@H](CC[C@@H]3[C@@H]2CC[C@]4(C)[C@@H](O)CC[C@@H]34)CC1=O

> <Precursor_InChI>
InChI=1S/C20H32O2/c1-12-11-20(3)13(10-17(12)21)4-5-14-15-6-7-18(22)19(15,2)9-8-16(14)20/h12-16,18,22H,4-11H2,1-3H3/t12-,13+,14+,15+,16+,18+,19+,20+/m1/s1

> <Precursor_InChIKey>
IKXILDNPCZPPRV-RFMGOVQKSA-N

> <Precursor_ALogP>


> <Precursor_Major_Isotope_Mass>
304.2402

$$$$
BTM00010
  CDK     09122622082D

 23 26  0  0  1  0  0  0  0  0999 V2000
   -5.2589    0.1502    0.0000 C   0  0  0  0  0  0  0  0  0  0  0  0
   -3.9600   -0.6000    0.0000 C   0  0  2  0  0  0  0  0  0  0  0  0
   -2.6600    0.1500    0.0000 C   0  0  0  0  0  0  0  0  0  0  0  0
   -1.3600   -0.6000    0.0000 C   0  0  1  0  0  0  0  0  0  0  0  0
   -1.3600    0.9000    0.0000 C   0  0  0  0  0  0  0  0  0  0  0  0
   -1.3600   -2.1000    0.0000 C   0  0  1  0  0  0  0  0  0  0  0  0
   -0.0600   -2.8500    0.0000 C   0  0  0  0  0  0  0  0  0  0  0  0
    1.2400   -2.1000    0.0000 C   0  0  0  0  0  0  0  0  0  0  0  0
    1.2400   -0.6000    0.0000 C   0  0  2  0  0  0  0  0  0  0  0  0
   -0.0600    0.1500    0.0000 C   0  0  2  0  0  0  0  0  0  0  0  0
   -0.0600    1.6500    0.0000 C   0  0  0  0  0  0  0  0  0  0  0  0
    1.2400    2.4000    0.0000 C   0  0  0  0  0  0  0  0  0  0  0  0
    2.5400    1.6500    0.0000 C   0  0  2  0  0  0  0  0  0  0  0  0
    2.6972    3.1417    0.0000 C   0  0  0  0  0  0  0  0  0  0  0  0
    3.9600    2.1100    0.0000 C   0  0  1  0  0  0  0  0  0  0  0  0
    4.4238    3.5365    0.0000 O   0  0  0  0  0  0  0  0  0  0  0  0
    4.8400    0.9000    0.0000 C   0  0  0  0  0  0  0  0  0  0  0  0
    3.9600   -0.3100    0.0000 C   0  0  0  0  0  0  0  0  0  0  0  0
    2.5400    0.1500    0.0000 C   0  0  1  0  0  0  0  0  0  0  0  0
   -2.6600   -2.8500    0.0000 C   0  0  0  0  0  0  0  0  0  0  0  0
   -3.9600   -2.1000    0.0000 C   0  0  0  0  0  0  0  0  0  0  0  0
   -5.2589   -2.8502    0.0000 O   0  0  0  0  0  0  0  0  0  0  0  0
    1.4839    4.0238    0.0000 O   0  0  0  0  0  0  0  0  0  0  0  0
  2  1  1  6  0  0  0
  2  3  1  0  0  0  0
  3  4  1  0  0  0  0
  4  5  1  1  0  0  0
  4  6  1  0  0  0  0
  6  7  1  1  0  0  0
  7  8  1  0  0  0  0
  9  8  1  6  0  0  0
  9 10  1  0  0  0  0
  4 10  1  0  0  0  0
 10 11  1  1  0  0  0
 11 12  1  0  0  0  0
 12 13  1  0  0  0  0
 13 14  1  1  0  0  0
 13 15  1  0  0  0  0
 15 16  1  1  0  0  0
 15 17  1  0  0  0  0
 17 18  1  0  0  0  0
 19 18  1  1  0  0  0
  9 19  1  0  0  0  0
 13 19  1  0  0  0  0
  6 20  1  0  0  0  0
 20 21  1  0  0  0  0
  2 21  1  0  0  0  0
 21 22  2  0  0  0  0
 23 14  1  0  0  0  0
M  END
> <InChI>
InChI=1S/C20H32O3/c1-12-10-19(2)13(9-17(12)22)3-4-14-15(19)7-8-20(11-21)16(14)5-6-18(20)23/h12-16,18,21,23H,3-11H2,1-2H3/t12-,13+,14-,15+,16+,18+,19+,20-/m1/s1

> <InChIKey>
GRMFWMNUOYVJMZ-LSAYCRBSSA-N

> <SMILES>
C[C@@H]1C[C@@]2(C)[C@@H](CC[C@@H]3[C@@H]2CC[C@]4(CO)[C@@H](O)CC[C@@H]34)CC1=O

> <Synonyms>


> <PUBCHEM_CID>


> <Molecular_formula>
C20H32O3

> <Major_Isotope_Mass>
320.23514488399996

> <ALogP>
2.5336999999999974

> <Lipinski_Violations>
0

> <Insecticide_Likeness_Violations>
0

> <Post_Em_Herbicide_Likeness_Violations>
0

> <Metabolite_ID>
BTM00010

> <Reaction>
Hydroxylation of methyl carbon adjacent to aliphatic ring

> <Reaction_ID>
BTMR0054

> <Enzyme(s)>
CYP2B6
CYP2C8
CYP2C9
CYP2C19
CYP2D6
CYP3A4

> <Biosystem>
HUMAN

> <Precursor_ID>


> <Precursor_SMILES>
C[C@@H]1C[C@@]2(C)[C@@H](CC[C@@H]3[C@@H]2CC[C@]4(C)[C@@H](O)CC[C@@H]34)CC1=O

> <Precursor_InChI>
InChI=1S/C20H32O2/c1-12-11-20(3)13(10-17(12)21)4-5-14-15-6-7-18(22)19(15,2)9-8-16(14)20/h12-16,18,22H,4-11H2,1-3H3/t12-,13+,14+,15+,16+,18+,19+,20+/m1/s1

> <Precursor_InChIKey>
IKXILDNPCZPPRV-RFMGOVQKSA-N

> <Precursor_ALogP>


> <Precursor_Major_Isotope_Mass>
304.2402

$$$$
BTM00011
  CDK     09122622082D

 23 26  0  0  1  0  0  0  0  0999 V2000
   -5.2589    0.1502    0.0000 C   0  0  0  0  0  0  0  0  0  0  0  0
   -3.9600   -0.6000    0.0000 C   0  0  2  0  0  0  0  0  0  0  0  0
   -2.6600    0.1500    0.0000 C   0  0  0  0  0  0  0  0  0  0  0  0
   -1.3600   -0.6000    0.0000 C   0  0  1  0  0  0  0  0  0  0  0  0
   -1.3600    0.9000    0.0000 C   0  0  0  0  0  0  0  0  0  0  0  0
   -1.3600   -2.1000    0.0000 C   0  0  1  0  0  0  0  0  0  0  0  0
   -0.0600   -2.8500    0.0000 C   0  0  0  0  0  0  0  0  0  0  0  0
    1.2400   -2.1000    0.0000 C   0  0  0  0  0  0  0  0  0  0  0  0
    1.2400   -0.6000    0.0000 C   0  0  2  0  0  0  0  0  0  0  0  0
   -0.0600    0.1500    0.0000 C   0  0  2  0  0  0  0  0  0  0  0  0
   -0.0600    1.6500    0.0000 C   0  0  0  0  0  0  0  0  0  0  0  0
    1.2400    2.4000    0.0000 C   0  0  0  0  0  0  0  0  0  0  0  0
    2.5400    1.6500    0.0000 C   0  0  2  0  0  0  0  0  0  0  0  0
    2.6972    3.1417    0.0000 C   0  0  0  0  0  0  0  0  0  0  0  0
    3.9600    2.1100    0.0000 C   0  0  1  0  0  0  0  0  0  0  0  0
    4.4238    3.5365    0.0000 O   0  0  0  0  0  0  0  0  0  0  0  0
    4.8400    0.9000    0.0000 C   0  0  0  0  0  0  0  0  0  0  0  0
    3.9600   -0.3100    0.0000 C   0  0  0  0  0  0  0  0  0  0  0  0
    2.5400    0.1500    0.0000 C   0  0  1  0  0  0  0  0  0  0  0  0
   -2.6600   -2.8500    0.0000 C   0  0  0  0  0  0  0  0  0  0  0  0
   -3.9600   -2.1000    0.0000 C   0  0  0  0  0  0  0  0  0  0  0  0
   -5.2589   -2.8502    0.0000 O   0  0  0  0  0  0  0  0  0  0  0  0
   -2.6590    1.6500    0.0000 O   0  0  0  0  0  0  0  0  0  0  0  0
  2  1  1  6  0  0  0
  2  3  1  0  0  0  0
  3  4  1  0  0  0  0
  4  5  1  1  0  0  0
  4  6  1  0  0  0  0
  6  7  1  1  0  0  0
  7  8  1  0  0  0  0
  9  8  1  6  0  0  0
  9 10  1  0  0  0  0
  4 10  1  0  0  0  0
 10 11  1  1  0  0  0
 11 12  1  0  0  0  0
 12 13  1  0  0  0  0
 13 14  1  1  0  0  0
 13 15  1  0  0  0  0
 15 16  1  1  0  0  0
 15 17  1  0  0  0  0
 17 18  1  0  0  0  0
 19 18  1  1  0  0  0
  9 19  1  0  0  0  0
 13 19  1  0  0  0  0
  6 20  1  0  0  0  0
 20 21  1  0  0  0  0
  2 21  1  0  0  0  0
 21 22  2  0  0  0  0
 23  5  1  0  0  0  0
M  END
> <InChI>
InChI=1S/C20H32O3/c1-12-10-20(11-21)13(9-17(12)22)3-4-14-15-5-6-18(23)19(15,2)8-7-16(14)20/h12-16,18,21,23H,3-11H2,1-2H3/t12-,13+,14+,15+,16+,18+,19+,20-/m1/s1

> <InChIKey>
OXYCLRYUYLGPSO-NIFXDIKSSA-N

> <SMILES>
C[C@@H]1C[C@@]2(CO)[C@@H](CC[C@@H]3[C@@H]2CC[C@]4(C)[C@@H](O)CC[C@@H]34)CC1=O

> <Synonyms>


> <PUBCHEM_CID>


> <Molecular_formula>
C20H32O3

> <Major_Isotope_Mass>
320.23514488399996

> <ALogP>
2.5336999999999974

> <Lipinski_Violations>
0

> <Insecticide_Likeness_Violations>
0

> <Post_Em_Herbicide_Likeness_Violations>
0

> <Metabolite_ID>
BTM00011

> <Reaction>
Hydroxylation of methyl carbon adjacent to aliphatic ring

> <Reaction_ID>
BTMR0054

> <Enzyme(s)>
CYP2B6
CYP2C8
CYP2C9
CYP2C19
CYP2D6
CYP3A4

> <Biosystem>
HUMAN

> <Precursor_ID>


> <Precursor_SMILES>
C[C@@H]1C[C@@]2(C)[C@@H](CC[C@@H]3[C@@H]2CC[C@]4(C)[C@@H](O)CC[C@@H]34)CC1=O

> <Precursor_InChI>
InChI=1S/C20H32O2/c1-12-11-20(3)13(10-17(12)21)4-5-14-15-6-7-18(22)19(15,2)9-8-16(14)20/h12-16,18,22H,4-11H2,1-3H3/t12-,13+,14+,15+,16+,18+,19+,20+/m1/s1

> <Precursor_InChIKey>
IKXILDNPCZPPRV-RFMGOVQKSA-N

> <Precursor_ALogP>


> <Precursor_Major_Isotope_Mass>
304.2402

$$$$
BTM00012
  CDK     09122622082D

 22 25  0  0  1  0  0  0  0  0999 V2000
   -5.5789    0.4402    0.0000 C   0  0  0  0  0  0  0  0  0  0  0  0
   -4.2800   -0.3100    0.0000 C   0  0  2  0  0  0  0  0  0  0  0  0
   -2.9800    0.4400    0.0000 C   0  0  0  0  0  0  0  0  0  0  0  0
   -1.6800   -0.3100    0.0000 C   0  0  1  0  0  0  0  0  0  0  0  0
   -1.6800    1.1900    0.0000 C   0  0  0  0  0  0  0  0  0  0  0  0
   -1.6800   -1.8100    0.0000 C   0  0  1  0  0  0  0  0  0  0  0  0
   -0.3800   -2.5600    0.0000 C   0  0  0  0  0  0  0  0  0  0  0  0
    0.9200   -1.8100    0.0000 C   0  0  0  0  0  0  0  0  0  0  0  0
    0.9200   -0.3100    0.0000 C   0  0  2  0  0  0  0  0  0  0  0  0
   -0.3800    0.4400    0.0000 C   0  0  2  0  0  0  0  0  0  0  0  0
   -0.3800    1.9400    0.0000 C   0  0  0  0  0  0  0  0  0  0  0  0
    0.9200    2.6900    0.0000 C   0  0  0  0  0  0  0  0  0  0  0  0
    2.2200    1.9400    0.0000 C   0  0  2  0  0  0  0  0  0  0  0  0
    2.3787    3.4316    0.0000 C   0  0  0  0  0  0  0  0  0  0  0  0
    3.6500    2.4000    0.0000 C   0  0  1  0  0  0  0  0  0  0  0  0
    4.1153    3.8260    0.0000 O   0  0  0  0  0  0  0  0  0  0  0  0
    4.5300    1.1900    0.0000 C   0  0  0  0  0  0  0  0  0  0  0  0
    3.6500   -0.0200    0.0000 C   0  0  0  0  0  0  0  0  0  0  0  0
    2.2200    0.4400    0.0000 C   0  0  1  0  0  0  0  0  0  0  0  0
   -2.9800   -2.5600    0.0000 C   0  0  0  0  0  0  0  0  0  0  0  0
   -4.2800   -1.8100    0.0000 C   0  0  0  0  0  0  0  0  0  0  0  0
   -5.5789   -2.5602    0.0000 O   0  0  0  0  0  0  0  0  0  0  0  0
  2  1  1  6  0  0  0
  2  3  1  0  0  0  0
  3  4  1  0  0  0  0
  4  5  1  1  0  0  0
  4  6  1  0  0  0  0
  6  7  1  1  0  0  0
  7  8  1  0  0  0  0
  9  8  1  6  0  0  0
  9 10  1  0  0  0  0
  4 10  1  0  0  0  0
 10 11  1  1  0  0  0
 11 12  1  0  0  0  0
 12 13  1  0  0  0  0
 13 14  1  1  0  0  0
 13 15  1  0  0  0  0
 15 16  1  1  0  0  0
 15 17  1  0  0  0  0
 17 18  1  0  0  0  0
 19 18  1  1  0  0  0
  9 19  1  0  0  0  0
 13 19  1  0  0  0  0
  6 20  1  0  0  0  0
 20 21  1  0  0  0  0
  2 21  1  0  0  0  0
 21 22  1  0  0  0  0
M  END
> <InChI>
InChI=1S/C20H34O2/c1-12-11-20(3)13(10-17(12)21)4-5-14-15-6-7-18(22)19(15,2)9-8-16(14)20/h12-18,21-22H,4-11H2,1-3H3/t12-,13+,14+,15+,16+,17?,18+,19+,20+/m1/s1

> <InChIKey>
GKHMLMUXODLNKN-WDHLYHRWSA-N

> <SMILES>
C[C@@H]1C[C@@]2(C)[C@@H](CC[C@@H]3[C@@H]2CC[C@]4(C)[C@@H](O)CC[C@@H]34)CC1O

> <Synonyms>


> <PUBCHEM_CID>


> <Molecular_formula>
C20H34O2

> <Major_Isotope_Mass>
306.255880328

> <ALogP>
3.8070999999999984

> <Lipinski_Violations>
1

> <Insecticide_Likeness_Violations>
0

> <Post_Em_Herbicide_Likeness_Violations>
0

> <Metabolite_ID>
BTM00012

> <Reaction>
Reduction of ketone to alcohol

> <Reaction_ID>
BTMR1171

> <Enzyme(s)>
CYP2C9

> <Biosystem>
HUMAN

> <Precursor_ID>


> <Precursor_SMILES>
C[C@@H]1C[C@@]2(C)[C@@H](CC[C@@H]3[C@@H]2CC[C@]4(C)[C@@H](O)CC[C@@H]34)CC1=O

> <Precursor_InChI>
InChI=1S/C20H32O2/c1-12-11-20(3)13(10-17(12)21)4-5-14-15-6-7-18(22)19(15,2)9-8-16(14)20/h12-16,18,22H,4-11H2,1-3H3/t12-,13+,14+,15+,16+,18+,19+,20+/m1/s1

> <Precursor_InChIKey>
IKXILDNPCZPPRV-RFMGOVQKSA-N

> <Precursor_ALogP>


> <Precursor_Major_Isotope_Mass>
304.2402

$$$$
