BTM00001
  CDK     09122622092D

 25 29  0  0  1  0  0  0  0  0999 V2000
   -2.5302   -0.0392    0.0000 C   0  0  0  0  0  0  0  0  0  0  0  0
   -2.5302   -1.5392    0.0000 C   0  0  2  0  0  0  0  0  0  0  0  0
   -3.8292   -0.7892    0.0000 C   0  0  0  0  0  0  0  0  0  0  0  0
   -5.1283   -1.5392    0.0000 C   0  0  0  0  0  0  0  0  0  0  0  0
   -6.5548   -1.0757    0.0000 N   0  0  0  0  0  0  0  0  0  0  0  0
   -7.4365   -2.2892    0.0000 O   0  0  0  0  0  0  0  0  0  0  0  0
   -6.5548   -3.5027    0.0000 N   0  0  0  0  0  0  0  0  0  0  0  0
   -5.1283   -3.0392    0.0000 C   0  0  0  0  0  0  0  0  0  0  0  0
   -3.8292   -3.7892    0.0000 C   0  0  0  0  0  0  0  0  0  0  0  0
   -2.5302   -3.0392    0.0000 C   0  0  2  0  0  0  0  0  0  0  0  0
   -1.2311   -3.7892    0.0000 C   0  0  0  0  0  0  0  0  0  0  0  0
    0.0679   -3.0392    0.0000 C   0  0  0  0  0  0  0  0  0  0  0  0
    0.0679   -1.5392    0.0000 C   0  0  2  0  0  0  0  0  0  0  0  0
   -1.2311   -0.7892    0.0000 C   0  0  2  0  0  0  0  0  0  0  0  0
   -1.2311    0.7108    0.0000 C   0  0  0  0  0  0  0  0  0  0  0  0
    0.0679    1.4608    0.0000 C   0  0  0  0  0  0  0  0  0  0  0  0
    1.3669    0.7108    0.0000 C   0  0  1  0  0  0  0  0  0  0  0  0
    1.5237    2.2026    0.0000 C   0  0  0  0  0  0  0  0  0  0  0  0
    1.3669   -0.7892    0.0000 C   0  0  1  0  0  0  0  0  0  0  0  0
    2.7935   -1.2527    0.0000 C   0  0  0  0  0  0  0  0  0  0  0  0
    3.6752   -0.0392    0.0000 C   0  0  0  0  0  0  0  0  0  0  0  0
    2.7935    1.1743    0.0000 C   0  0  1  0  0  0  0  0  0  0  0  0
    4.0926    1.9243    0.0000 C   0  0  0  0  0  0  0  0  0  0  0  0
    2.8459   -0.3248    0.0000 O   0  0  0  0  0  0  0  0  0  0  0  0
   -2.5302    1.4608    0.0000 O   0  0  0  0  0  0  0  0  0  0  0  0
  2  1  1  1  0  0  0
  2  3  1  0  0  0  0
  3  4  1  0  0  0  0
  4  5  2  0  0  0  0
  5  6  1  0  0  0  0
  6  7  1  0  0  0  0
  7  8  2  0  0  0  0
  4  8  1  0  0  0  0
  8  9  1  0  0  0  0
 10  9  1  1  0  0  0
  2 10  1  0  0  0  0
 10 11  1  0  0  0  0
 11 12  1  0  0  0  0
 13 12  1  6  0  0  0
 13 14  1  0  0  0  0
  2 14  1  0  0  0  0
 14 15  1  1  0  0  0
 15 16  1  0  0  0  0
 16 17  1  0  0  0  0
 17 18  1  1  0  0  0
 17 19  1  0  0  0  0
 13 19  1  0  0  0  0
 19 20  1  1  0  0  0
 20 21  1  0  0  0  0
 22 21  1  6  0  0  0
 17 22  1  0  0  0  0
 22 23  1  0  0  0  0
 22 24  1  1  0  0  0
 25 15  1  0  0  0  0
M  END
> <InChI>
InChI=1S/C20H30N2O3/c1-18-9-15-14(21-25-22-15)8-11(18)4-5-12-13-6-7-20(3,24)19(13,2)10-16(23)17(12)18/h11-13,16-17,23-24H,4-10H2,1-3H3/t11-,12-,13-,16?,17+,18-,19-,20-/m0/s1

> <InChIKey>
JKHNBJMYVPXQNW-DOGPOOAVSA-N

> <SMILES>
C[C@]12CC3=NON=C3C[C@@H]1CC[C@@H]4[C@@H]2C(C[C@@]5(C)[C@H]4CC[C@]5(C)O)O

> <Synonyms>


> <PUBCHEM_CID>


> <Molecular_formula>
C20H30N2O3

> <Major_Isotope_Mass>
346.22564281999996

> <ALogP>
2.1849000000000007

> <Lipinski_Violations>
0

> <Insecticide_Likeness_Violations>
0

> <Post_Em_Herbicide_Likeness_Violations>
0

> <Metabolite_ID>
BTM00001

> <Reaction>
11-beta-Hydroxylation of sterol

> <Reaction_ID>
BTMR0406

> <Enzyme(s)>
EC 1.14.15.4

> <Biosystem>
HUMAN

> <Precursor_ID>


> <Precursor_SMILES>
C[C@]12CC3=NON=C3C[C@@H]1CC[C@@H]4[C@@H]2CC[C@@]5(C)[C@H]4CC[C@]5(C)O

> <Precursor_InChI>
InChI=1S/C20H30N2O2/c1-18-11-17-16(21-24-22-17)10-12(18)4-5-13-14(18)6-8-19(2)15(13)7-9-20(19,3)23/h12-15,23H,4-11H2,1-3H3/t12-,13+,14-,15-,18-,19-,20-/m0/s1

> <Precursor_InChIKey>
RGLLOUBXMOGLDQ-IVEVATEUSA-N

> <Precursor_ALogP>


> <Precursor_Major_Isotope_Mass>
330.2307

$$$$
BTM00002
  CDK     09122622092D

 36 41  0  0  1  0  0  0  0  0999 V2000
    0.5766    0.3860    0.0000 C   0  0  0  0  0  0  0  0  0  0  0  0
    1.8756    1.1360    0.0000 C   0  0  2  0  0  0  0  0  0  0  0  0
    1.8756   -0.3640    0.0000 C   0  0  0  0  0  0  0  0  0  0  0  0
    3.1747   -1.1140    0.0000 C   0  0  0  0  0  0  0  0  0  0  0  0
    3.4865   -2.5812    0.0000 N   0  0  0  0  0  0  0  0  0  0  0  0
    4.9783   -2.7380    0.0000 O   0  0  0  0  0  0  0  0  0  0  0  0
    5.5884   -1.3677    0.0000 N   0  0  0  0  0  0  0  0  0  0  0  0
    4.4737   -0.3640    0.0000 C   0  0  0  0  0  0  0  0  0  0  0  0
    4.4737    1.1360    0.0000 C   0  0  0  0  0  0  0  0  0  0  0  0
    3.1747    1.8860    0.0000 C   0  0  2  0  0  0  0  0  0  0  0  0
    3.1747    3.3860    0.0000 C   0  0  0  0  0  0  0  0  0  0  0  0
    1.8756    4.1360    0.0000 C   0  0  0  0  0  0  0  0  0  0  0  0
    0.5766    3.3860    0.0000 C   0  0  2  0  0  0  0  0  0  0  0  0
    0.5766    1.8860    0.0000 C   0  0  2  0  0  0  0  0  0  0  0  0
   -0.7225    1.1360    0.0000 C   0  0  0  0  0  0  0  0  0  0  0  0
   -2.0215    1.8860    0.0000 C   0  0  0  0  0  0  0  0  0  0  0  0
   -2.0215    3.3860    0.0000 C   0  0  1  0  0  0  0  0  0  0  0  0
   -3.3918    2.7759    0.0000 C   0  0  0  0  0  0  0  0  0  0  0  0
   -0.7225    4.1360    0.0000 C   0  0  1  0  0  0  0  0  0  0  0  0
   -1.0343    5.6032    0.0000 C   0  0  0  0  0  0  0  0  0  0  0  0
   -2.5261    5.7600    0.0000 C   0  0  0  0  0  0  0  0  0  0  0  0
   -3.1362    4.3897    0.0000 C   0  0  1  0  0  0  0  0  0  0  0  0
   -4.4352    5.1397    0.0000 C   0  0  0  0  0  0  0  0  0  0  0  0
   -4.3000    2.7878    0.0000 O   0  0  0  0  0  0  0  0  0  0  0  0
   -6.0672    0.3695    0.0000 O   0  0  0  0  0  0  0  0  0  0  0  0
   -6.6718    1.7422    0.0000 C   0  0  0  0  0  0  0  0  0  0  0  0
   -8.1858    1.9085    0.0000 C   0  0  0  0  0  0  0  0  0  0  0  0
   -9.0757    0.7010    0.0000 O   0  0  0  0  0  0  0  0  0  0  0  0
   -8.7861    3.2895    0.0000 C   0  0  0  0  0  0  0  0  0  0  0  0
  -10.2768    3.4555    0.0000 O   0  0  0  0  0  0  0  0  0  0  0  0
   -7.9061    4.4919    0.0000 C   0  0  0  0  0  0  0  0  0  0  0  0
   -6.4141    4.3294    0.0000 O   0  0  0  0  0  0  0  0  0  0  0  0
   -5.7918    2.9446    0.0000 C   0  0  0  0  0  0  0  0  0  0  0  0
   -8.5113    5.8645    0.0000 C   0  0  0  0  0  0  0  0  0  0  0  0
  -10.0025    6.0266    0.0000 O   0  0  0  0  0  0  0  0  0  0  0  0
   -7.6252    7.0748    0.0000 O   0  0  0  0  0  0  0  0  0  0  0  0
  2  1  1  1  0  0  0
  2  3  1  0  0  0  0
  3  4  1  0  0  0  0
  4  5  2  0  0  0  0
  5  6  1  0  0  0  0
  6  7  1  0  0  0  0
  7  8  2  0  0  0  0
  4  8  1  0  0  0  0
  8  9  1  0  0  0  0
 10  9  1  1  0  0  0
  2 10  1  0  0  0  0
 10 11  1  0  0  0  0
 11 12  1  0  0  0  0
 13 12  1  6  0  0  0
 13 14  1  0  0  0  0
  2 14  1  0  0  0  0
 14 15  1  1  0  0  0
 15 16  1  0  0  0  0
 16 17  1  0  0  0  0
 17 18  1  1  0  0  0
 17 19  1  0  0  0  0
 13 19  1  0  0  0  0
 19 20  1  1  0  0  0
 20 21  1  0  0  0  0
 21 22  1  0  0  0  0
 17 22  1  0  0  0  0
 22 23  1  6  0  0  0
 22 24  1  1  0  0  0
 25 26  1  0  0  0  0
 26 27  1  0  0  0  0
 27 28  1  0  0  0  0
 27 29  1  0  0  0  0
 29 30  1  0  0  0  0
 29 31  1  0  0  0  0
 31 32  1  0  0  0  0
 32 33  1  0  0  0  0
 26 33  1  0  0  0  0
 33 24  1  0  0  0  0
 31 34  1  0  0  0  0
 34 35  1  0  0  0  0
 34 36  2  0  0  0  0
M  END
> <InChI>
InChI=1S/C26H38N2O8/c1-24-11-17-16(27-36-28-17)10-12(24)4-5-13-14(24)6-8-25(2)15(13)7-9-26(25,3)35-23-20(31)18(29)19(30)21(34-23)22(32)33/h12-15,18-21,23,29-31H,4-11H2,1-3H3,(H,32,33)/t12-,13+,14-,15-,18?,19?,20?,21?,23?,24-,25-,26-/m0/s1

> <InChIKey>
JIYNFXGUCKKSIV-HRBBQLQLSA-N

> <SMILES>
C[C@]12CC3=NON=C3C[C@@H]1CC[C@@H]4[C@@H]2CC[C@@]5(C)[C@H]4CC[C@]5(C)OC6OC(C(C(C6O)O)O)C(O)=O

> <Synonyms>


> <PUBCHEM_CID>


> <Molecular_formula>
C26H38N2O8

> <Major_Isotope_Mass>
506.262816176

> <ALogP>
1.8162999999999967

> <Lipinski_Violations>
1

> <Insecticide_Likeness_Violations>
1

> <Post_Em_Herbicide_Likeness_Violations>
1

> <Metabolite_ID>
BTM00002

> <Reaction>
17-OH-Glucuronidation of sterol

> <Reaction_ID>
BTMR0163

> <Enzyme(s)>
EC 2.4.1.17

> <Biosystem>
HUMAN

> <Precursor_ID>


> <Precursor_SMILES>
C[C@]12CC3=NON=C3C[C@@H]1CC[C@@H]4[C@@H]2CC[C@@]5(C)[C@H]4CC[C@]5(C)O

> <Precursor_InChI>
InChI=1S/C20H30N2O2/c1-18-11-17-16(21-24-22-17)10-12(18)4-5-13-14(18)6-8-19(2)15(13)7-9-20(19,3)23/h12-15,23H,4-11H2,1-3H3/t12-,13+,14-,15-,18-,19-,20-/m0/s1

> <Precursor_InChIKey>
RGLLOUBXMOGLDQ-IVEVATEUSA-N

> <Precursor_ALogP>


> <Precursor_Major_Isotope_Mass>
330.2307

$$$$
BTM00003
  CDK     09122622092D

 25 29  0  0  1  0  0  0  0  0999 V2000
   -2.4841    0.0406    0.0000 C   0  0  0  0  0  0  0  0  0  0  0  0
   -2.4841   -1.4594    0.0000 C   0  0  2  0  0  0  0  0  0  0  0  0
   -3.7831   -0.7094    0.0000 C   0  0  0  0  0  0  0  0  0  0  0  0
   -5.0822   -1.4594    0.0000 C   0  0  0  0  0  0  0  0  0  0  0  0
   -6.5088   -0.9959    0.0000 N   0  0  0  0  0  0  0  0  0  0  0  0
   -7.3904   -2.2094    0.0000 O   0  0  0  0  0  0  0  0  0  0  0  0
   -6.5088   -3.4229    0.0000 N   0  0  0  0  0  0  0  0  0  0  0  0
   -5.0822   -2.9594    0.0000 C   0  0  0  0  0  0  0  0  0  0  0  0
   -3.7831   -3.7094    0.0000 C   0  0  0  0  0  0  0  0  0  0  0  0
   -2.4841   -2.9594    0.0000 C   0  0  2  0  0  0  0  0  0  0  0  0
   -1.1851   -3.7094    0.0000 C   0  0  0  0  0  0  0  0  0  0  0  0
    0.1140   -2.9594    0.0000 C   0  0  0  0  0  0  0  0  0  0  0  0
    0.1140   -1.4594    0.0000 C   0  0  2  0  0  0  0  0  0  0  0  0
   -1.1851   -0.7094    0.0000 C   0  0  2  0  0  0  0  0  0  0  0  0
   -1.1851    0.7906    0.0000 C   0  0  0  0  0  0  0  0  0  0  0  0
    0.1140    1.5406    0.0000 C   0  0  0  0  0  0  0  0  0  0  0  0
    1.4130    0.7906    0.0000 C   0  0  1  0  0  0  0  0  0  0  0  0
    1.5698    2.2824    0.0000 C   0  0  0  0  0  0  0  0  0  0  0  0
    1.4130   -0.7094    0.0000 C   0  0  1  0  0  0  0  0  0  0  0  0
    2.8396   -1.1729    0.0000 C   0  0  0  0  0  0  0  0  0  0  0  0
    3.7213    0.0406    0.0000 C   0  0  0  0  0  0  0  0  0  0  0  0
    2.8396    1.2541    0.0000 C   0  0  1  0  0  0  0  0  0  0  0  0
    4.1386    2.0041    0.0000 C   0  0  0  0  0  0  0  0  0  0  0  0
    2.8919   -0.2449    0.0000 O   0  0  0  0  0  0  0  0  0  0  0  0
    5.2213    0.0406    0.0000 O   0  0  0  0  0  0  0  0  0  0  0  0
  2  1  1  1  0  0  0
  2  3  1  0  0  0  0
  3  4  1  0  0  0  0
  4  5  2  0  0  0  0
  5  6  1  0  0  0  0
  6  7  1  0  0  0  0
  7  8  2  0  0  0  0
  4  8  1  0  0  0  0
  8  9  1  0  0  0  0
 10  9  1  1  0  0  0
  2 10  1  0  0  0  0
 10 11  1  0  0  0  0
 11 12  1  0  0  0  0
 13 12  1  6  0  0  0
 13 14  1  0  0  0  0
  2 14  1  0  0  0  0
 14 15  1  1  0  0  0
 15 16  1  0  0  0  0
 16 17  1  0  0  0  0
 17 18  1  1  0  0  0
 17 19  1  0  0  0  0
 13 19  1  0  0  0  0
 19 20  1  1  0  0  0
 20 21  1  0  0  0  0
 21 22  1  0  0  0  0
 17 22  1  0  0  0  0
 22 23  1  0  0  0  0
 22 24  1  1  0  0  0
 25 21  1  0  0  0  0
M  END
> <InChI>
InChI=1S/C20H30N2O3/c1-18-10-16-15(21-25-22-16)8-11(18)4-5-12-13(18)6-7-19(2)14(12)9-17(23)20(19,3)24/h11-14,17,23-24H,4-10H2,1-3H3/t11-,12+,13-,14-,17?,18-,19-,20-/m0/s1

> <InChIKey>
WWOPKCRAWYWZPG-YCOUFICWSA-N

> <SMILES>
C[C@]12CC3=NON=C3C[C@@H]1CC[C@@H]4[C@@H]2CC[C@@]5(C)[C@H]4CC([C@]5(C)O)O

> <Synonyms>


> <PUBCHEM_CID>


> <Molecular_formula>
C20H30N2O3

> <Major_Isotope_Mass>
346.22564281999996

> <ALogP>
2.3874000000000013

> <Lipinski_Violations>
0

> <Insecticide_Likeness_Violations>
0

> <Post_Em_Herbicide_Likeness_Violations>
0

> <Metabolite_ID>
BTM00003

> <Reaction>
16-Hydroxylation of sterol

> <Reaction_ID>
BTMR0407

> <Enzyme(s)>
CYP1A2
CYP2A6
CYP2B6
CYP2C8
CYP2C9
CYP2C19
CYP2D6
CYP2E1
CYP3A4

> <Biosystem>
HUMAN

> <Precursor_ID>


> <Precursor_SMILES>
C[C@]12CC3=NON=C3C[C@@H]1CC[C@@H]4[C@@H]2CC[C@@]5(C)[C@H]4CC[C@]5(C)O

> <Precursor_InChI>
InChI=1S/C20H30N2O2/c1-18-11-17-16(21-24-22-17)10-12(18)4-5-13-14(18)6-8-19(2)15(13)7-9-20(19,3)23/h12-15,23H,4-11H2,1-3H3/t12-,13+,14-,15-,18-,19-,20-/m0/s1

> <Precursor_InChIKey>
RGLLOUBXMOGLDQ-IVEVATEUSA-N

> <Precursor_ALogP>


> <Precursor_Major_Isotope_Mass>
330.2307

$$$$
BTM00004
  CDK     09122622092D

 25 29  0  0  1  0  0  0  0  0999 V2000
   -2.4841    0.0406    0.0000 C   0  0  0  0  0  0  0  0  0  0  0  0
   -2.4841   -1.4594    0.0000 C   0  0  2  0  0  0  0  0  0  0  0  0
   -3.7831   -0.7094    0.0000 C   0  0  0  0  0  0  0  0  0  0  0  0
   -5.0822   -1.4594    0.0000 C   0  0  0  0  0  0  0  0  0  0  0  0
   -6.5088   -0.9959    0.0000 N   0  0  0  0  0  0  0  0  0  0  0  0
   -7.3904   -2.2094    0.0000 O   0  0  0  0  0  0  0  0  0  0  0  0
   -6.5088   -3.4229    0.0000 N   0  0  0  0  0  0  0  0  0  0  0  0
   -5.0822   -2.9594    0.0000 C   0  0  0  0  0  0  0  0  0  0  0  0
   -3.7831   -3.7094    0.0000 C   0  0  0  0  0  0  0  0  0  0  0  0
   -2.4841   -2.9594    0.0000 C   0  0  2  0  0  0  0  0  0  0  0  0
   -1.1851   -3.7094    0.0000 C   0  0  0  0  0  0  0  0  0  0  0  0
    0.1140   -2.9594    0.0000 C   0  0  0  0  0  0  0  0  0  0  0  0
    0.1140   -1.4594    0.0000 C   0  0  2  0  0  0  0  0  0  0  0  0
   -1.1851   -0.7094    0.0000 C   0  0  2  0  0  0  0  0  0  0  0  0
   -1.1851    0.7906    0.0000 C   0  0  0  0  0  0  0  0  0  0  0  0
    0.1140    1.5406    0.0000 C   0  0  0  0  0  0  0  0  0  0  0  0
    1.4130    0.7906    0.0000 C   0  0  1  0  0  0  0  0  0  0  0  0
    1.5698    2.2824    0.0000 C   0  0  0  0  0  0  0  0  0  0  0  0
    1.4130   -0.7094    0.0000 C   0  0  1  0  0  0  0  0  0  0  0  0
    2.8396   -1.1729    0.0000 C   0  0  0  0  0  0  0  0  0  0  0  0
    3.7213    0.0406    0.0000 C   0  0  0  0  0  0  0  0  0  0  0  0
    2.8396    1.2541    0.0000 C   0  0  1  0  0  0  0  0  0  0  0  0
    4.1386    2.0041    0.0000 C   0  0  0  0  0  0  0  0  0  0  0  0
    2.8919   -0.2449    0.0000 O   0  0  0  0  0  0  0  0  0  0  0  0
   -3.7831   -5.2094    0.0000 O   0  0  0  0  0  0  0  0  0  0  0  0
  2  1  1  1  0  0  0
  2  3  1  0  0  0  0
  3  4  1  0  0  0  0
  4  5  2  0  0  0  0
  5  6  1  0  0  0  0
  6  7  1  0  0  0  0
  7  8  2  0  0  0  0
  4  8  1  0  0  0  0
  8  9  1  0  0  0  0
  9 10  1  0  0  0  0
  2 10  1  0  0  0  0
 10 11  1  1  0  0  0
 11 12  1  0  0  0  0
 13 12  1  6  0  0  0
 13 14  1  0  0  0  0
  2 14  1  0  0  0  0
 14 15  1  1  0  0  0
 15 16  1  0  0  0  0
 16 17  1  0  0  0  0
 17 18  1  1  0  0  0
 17 19  1  0  0  0  0
 13 19  1  0  0  0  0
 19 20  1  1  0  0  0
 20 21  1  0  0  0  0
 22 21  1  6  0  0  0
 17 22  1  0  0  0  0
 22 23  1  0  0  0  0
 22 24  1  1  0  0  0
 25  9  1  0  0  0  0
M  END
> <InChI>
InChI=1S/C20H30N2O3/c1-18-10-15-16(22-25-21-15)17(23)14(18)5-4-11-12(18)6-8-19(2)13(11)7-9-20(19,3)24/h11-14,17,23-24H,4-10H2,1-3H3/t11-,12+,13+,14+,17?,18-,19+,20+/m1/s1

> <InChIKey>
UNRICCWVIWOUFK-SIVYZIRKSA-N

> <SMILES>
C[C@]12CC3=NON=C3C([C@@H]1CC[C@@H]4[C@@H]2CC[C@@]5(C)[C@H]4CC[C@]5(C)O)O

> <Synonyms>


> <PUBCHEM_CID>


> <Molecular_formula>
C20H30N2O3

> <Major_Isotope_Mass>
346.22564281999996

> <ALogP>
2.7413000000000007

> <Lipinski_Violations>
0

> <Insecticide_Likeness_Violations>
0

> <Post_Em_Herbicide_Likeness_Violations>
0

> <Metabolite_ID>
BTM00004

> <Reaction>
4-Hydroxylation of sterol

> <Reaction_ID>
BTMR0400

> <Enzyme(s)>
CYP1A2
CYP3A4

> <Biosystem>
HUMAN

> <Precursor_ID>


> <Precursor_SMILES>
C[C@]12CC3=NON=C3C[C@@H]1CC[C@@H]4[C@@H]2CC[C@@]5(C)[C@H]4CC[C@]5(C)O

> <Precursor_InChI>
InChI=1S/C20H30N2O2/c1-18-11-17-16(21-24-22-17)10-12(18)4-5-13-14(18)6-8-19(2)15(13)7-9-20(19,3)23/h12-15,23H,4-11H2,1-3H3/t12-,13+,14-,15-,18-,19-,20-/m0/s1

> <Precursor_InChIKey>
RGLLOUBXMOGLDQ-IVEVATEUSA-N

> <Precursor_ALogP>


> <Precursor_Major_Isotope_Mass>
330.2307

$$$$
BTM00005
  CDK     09122622092D

 25 29  0  0  1  0  0  0  0  0999 V2000
   -2.1593    0.6031    0.0000 C   0  0  0  0  0  0  0  0  0  0  0  0
   -2.1593   -0.8969    0.0000 C   0  0  2  0  0  0  0  0  0  0  0  0
   -3.4584   -0.1469    0.0000 C   0  0  0  0  0  0  0  0  0  0  0  0
   -4.7574   -0.8969    0.0000 C   0  0  0  0  0  0  0  0  0  0  0  0
   -6.1840   -0.4334    0.0000 N   0  0  0  0  0  0  0  0  0  0  0  0
   -7.0657   -1.6469    0.0000 O   0  0  0  0  0  0  0  0  0  0  0  0
   -6.1840   -2.8604    0.0000 N   0  0  0  0  0  0  0  0  0  0  0  0
   -4.7574   -2.3969    0.0000 C   0  0  0  0  0  0  0  0  0  0  0  0
   -3.4584   -3.1469    0.0000 C   0  0  0  0  0  0  0  0  0  0  0  0
   -2.1593   -2.3969    0.0000 C   0  0  2  0  0  0  0  0  0  0  0  0
   -0.8603   -3.1469    0.0000 C   0  0  0  0  0  0  0  0  0  0  0  0
    0.4387   -2.3969    0.0000 C   0  0  0  0  0  0  0  0  0  0  0  0
    0.4387   -0.8969    0.0000 C   0  0  2  0  0  0  0  0  0  0  0  0
   -0.8603   -0.1469    0.0000 C   0  0  2  0  0  0  0  0  0  0  0  0
   -0.8603    1.3531    0.0000 C   0  0  0  0  0  0  0  0  0  0  0  0
    0.4387    2.1031    0.0000 C   0  0  0  0  0  0  0  0  0  0  0  0
    1.7378    1.3531    0.0000 C   0  0  1  0  0  0  0  0  0  0  0  0
    1.8946    2.8449    0.0000 C   0  0  0  0  0  0  0  0  0  0  0  0
    1.7378   -0.1469    0.0000 C   0  0  1  0  0  0  0  0  0  0  0  0
    3.1644   -0.6104    0.0000 C   0  0  0  0  0  0  0  0  0  0  0  0
    4.0460    0.6031    0.0000 C   0  0  0  0  0  0  0  0  0  0  0  0
    3.1644    1.8166    0.0000 C   0  0  1  0  0  0  0  0  0  0  0  0
    4.4634    2.5666    0.0000 C   0  0  0  0  0  0  0  0  0  0  0  0
    3.2167    0.3176    0.0000 O   0  0  0  0  0  0  0  0  0  0  0  0
   -0.8603   -4.6469    0.0000 O   0  0  0  0  0  0  0  0  0  0  0  0
  2  1  1  1  0  0  0
  2  3  1  0  0  0  0
  3  4  1  0  0  0  0
  4  5  2  0  0  0  0
  5  6  1  0  0  0  0
  6  7  1  0  0  0  0
  7  8  2  0  0  0  0
  4  8  1  0  0  0  0
  8  9  1  0  0  0  0
 10  9  1  1  0  0  0
  2 10  1  0  0  0  0
 10 11  1  0  0  0  0
 11 12  1  0  0  0  0
 13 12  1  6  0  0  0
 13 14  1  0  0  0  0
  2 14  1  0  0  0  0
 14 15  1  1  0  0  0
 15 16  1  0  0  0  0
 16 17  1  0  0  0  0
 17 18  1  1  0  0  0
 17 19  1  0  0  0  0
 13 19  1  0  0  0  0
 19 20  1  1  0  0  0
 20 21  1  0  0  0  0
 22 21  1  6  0  0  0
 17 22  1  0  0  0  0
 22 23  1  0  0  0  0
 22 24  1  1  0  0  0
 25 11  1  0  0  0  0
M  END
> <InChI>
InChI=1S/C20H30N2O3/c1-18-10-16-15(21-25-22-16)9-14(18)17(23)8-11-12(18)4-6-19(2)13(11)5-7-20(19,3)24/h11-14,17,23-24H,4-10H2,1-3H3/t11-,12+,13+,14-,17?,18-,19+,20+/m1/s1

> <InChIKey>
FIYDCWATXBQMSO-AQQFJWQFSA-N

> <SMILES>
C[C@]12CC3=NON=C3C[C@@H]1C(C[C@@H]4[C@@H]2CC[C@@]5(C)[C@H]4CC[C@]5(C)O)O

> <Synonyms>


> <PUBCHEM_CID>


> <Molecular_formula>
C20H30N2O3

> <Major_Isotope_Mass>
346.22564281999996

> <ALogP>
2.1849000000000007

> <Lipinski_Violations>
0

> <Insecticide_Likeness_Violations>
0

> <Post_Em_Herbicide_Likeness_Violations>
0

> <Metabolite_ID>
BTM00005

> <Reaction>
6-Hydroxylation of sterol

> <Reaction_ID>
BTMR0402

> <Enzyme(s)>
CYP2A6
CYP2B6
CYP2C8
CYP2C9
CYP2C19
CYP2D6
CYP3A4

> <Biosystem>
HUMAN

> <Precursor_ID>


> <Precursor_SMILES>
C[C@]12CC3=NON=C3C[C@@H]1CC[C@@H]4[C@@H]2CC[C@@]5(C)[C@H]4CC[C@]5(C)O

> <Precursor_InChI>
InChI=1S/C20H30N2O2/c1-18-11-17-16(21-24-22-17)10-12(18)4-5-13-14(18)6-8-19(2)15(13)7-9-20(19,3)23/h12-15,23H,4-11H2,1-3H3/t12-,13+,14-,15-,18-,19-,20-/m0/s1

> <Precursor_InChIKey>
RGLLOUBXMOGLDQ-IVEVATEUSA-N

> <Precursor_ALogP>


> <Precursor_Major_Isotope_Mass>
330.2307

$$$$
BTM00006
  CDK     09122622092D

 25 29  0  0  1  0  0  0  0  0999 V2000
   -2.5302   -0.0392    0.0000 C   0  0  0  0  0  0  0  0  0  0  0  0
   -2.5302   -1.5392    0.0000 C   0  0  2  0  0  0  0  0  0  0  0  0
   -3.8292   -0.7892    0.0000 C   0  0  0  0  0  0  0  0  0  0  0  0
   -5.1283   -1.5392    0.0000 C   0  0  0  0  0  0  0  0  0  0  0  0
   -6.5548   -1.0757    0.0000 N   0  0  0  0  0  0  0  0  0  0  0  0
   -7.4365   -2.2892    0.0000 O   0  0  0  0  0  0  0  0  0  0  0  0
   -6.5548   -3.5027    0.0000 N   0  0  0  0  0  0  0  0  0  0  0  0
   -5.1283   -3.0392    0.0000 C   0  0  0  0  0  0  0  0  0  0  0  0
   -3.8292   -3.7892    0.0000 C   0  0  0  0  0  0  0  0  0  0  0  0
   -2.5302   -3.0392    0.0000 C   0  0  2  0  0  0  0  0  0  0  0  0
   -1.2311   -3.7892    0.0000 C   0  0  0  0  0  0  0  0  0  0  0  0
    0.0679   -3.0392    0.0000 C   0  0  0  0  0  0  0  0  0  0  0  0
    0.0679   -1.5392    0.0000 C   0  0  2  0  0  0  0  0  0  0  0  0
   -1.2311   -0.7892    0.0000 C   0  0  2  0  0  0  0  0  0  0  0  0
   -1.2311    0.7108    0.0000 C   0  0  0  0  0  0  0  0  0  0  0  0
    0.0679    1.4608    0.0000 C   0  0  0  0  0  0  0  0  0  0  0  0
    1.3669    0.7108    0.0000 C   0  0  1  0  0  0  0  0  0  0  0  0
    1.5237    2.2026    0.0000 C   0  0  0  0  0  0  0  0  0  0  0  0
    1.3669   -0.7892    0.0000 C   0  0  1  0  0  0  0  0  0  0  0  0
    2.7935   -1.2527    0.0000 C   0  0  0  0  0  0  0  0  0  0  0  0
    3.6752   -0.0392    0.0000 C   0  0  0  0  0  0  0  0  0  0  0  0
    2.7935    1.1743    0.0000 C   0  0  1  0  0  0  0  0  0  0  0  0
    4.0926    1.9243    0.0000 C   0  0  0  0  0  0  0  0  0  0  0  0
    2.8459   -0.3248    0.0000 O   0  0  0  0  0  0  0  0  0  0  0  0
   -3.8292    0.7108    0.0000 O   0  0  0  0  0  0  0  0  0  0  0  0
  2  1  1  1  0  0  0
  2  3  1  0  0  0  0
  3  4  1  0  0  0  0
  4  5  2  0  0  0  0
  5  6  1  0  0  0  0
  6  7  1  0  0  0  0
  7  8  2  0  0  0  0
  4  8  1  0  0  0  0
  8  9  1  0  0  0  0
 10  9  1  1  0  0  0
  2 10  1  0  0  0  0
 10 11  1  0  0  0  0
 11 12  1  0  0  0  0
 13 12  1  6  0  0  0
 13 14  1  0  0  0  0
  2 14  1  0  0  0  0
 14 15  1  1  0  0  0
 15 16  1  0  0  0  0
 16 17  1  0  0  0  0
 17 18  1  1  0  0  0
 17 19  1  0  0  0  0
 13 19  1  0  0  0  0
 19 20  1  1  0  0  0
 20 21  1  0  0  0  0
 22 21  1  6  0  0  0
 17 22  1  0  0  0  0
 22 23  1  0  0  0  0
 22 24  1  1  0  0  0
 25  1  1  0  0  0  0
M  END
> <InChI>
InChI=1S/C20H30N2O3/c1-18-7-5-15-13(14(18)6-8-19(18,2)24)4-3-12-9-16-17(22-25-21-16)10-20(12,15)11-23/h12-15,23-24H,3-11H2,1-2H3/t12-,13-,14-,15-,18-,19-,20+/m0/s1

> <InChIKey>
NNBLTRHRQVHLQZ-JFBKEYHMSA-N

> <SMILES>
C([C@]12CC3=NON=C3C[C@@H]1CC[C@@H]4[C@@H]2CC[C@@]5(C)[C@H]4CC[C@]5(C)O)O

> <Synonyms>


> <PUBCHEM_CID>


> <Molecular_formula>
C20H30N2O3

> <Major_Isotope_Mass>
346.22564282

> <ALogP>
2.263600000000001

> <Lipinski_Violations>
0

> <Insecticide_Likeness_Violations>
0

> <Post_Em_Herbicide_Likeness_Violations>
0

> <Metabolite_ID>
BTM00006

> <Reaction>
Hydroxylation of methyl carbon adjacent to aliphatic ring

> <Reaction_ID>
BTMR0054

> <Enzyme(s)>
CYP2B6
CYP2C8
CYP2C9
CYP2C19
CYP2D6
CYP3A4

> <Biosystem>
HUMAN

> <Precursor_ID>


> <Precursor_SMILES>
C[C@]12CC3=NON=C3C[C@@H]1CC[C@@H]4[C@@H]2CC[C@@]5(C)[C@H]4CC[C@]5(C)O

> <Precursor_InChI>
InChI=1S/C20H30N2O2/c1-18-11-17-16(21-24-22-17)10-12(18)4-5-13-14(18)6-8-19(2)15(13)7-9-20(19,3)23/h12-15,23H,4-11H2,1-3H3/t12-,13+,14-,15-,18-,19-,20-/m0/s1

> <Precursor_InChIKey>
RGLLOUBXMOGLDQ-IVEVATEUSA-N

> <Precursor_ALogP>


> <Precursor_Major_Isotope_Mass>
330.2307

$$$$
BTM00007
  CDK     09122622092D

 25 29  0  0  1  0  0  0  0  0999 V2000
    0.3951   -1.1349    0.0000 C   0  0  0  0  0  0  0  0  0  0  0  0
    0.3951    0.3651    0.0000 C   0  0  2  0  0  0  0  0  0  0  0  0
    1.6941   -0.3849    0.0000 C   0  0  0  0  0  0  0  0  0  0  0  0
    2.9932    0.3651    0.0000 C   0  0  0  0  0  0  0  0  0  0  0  0
    4.4198   -0.0984    0.0000 N   0  0  0  0  0  0  0  0  0  0  0  0
    5.3014    1.1151    0.0000 O   0  0  0  0  0  0  0  0  0  0  0  0
    4.4198    2.3286    0.0000 N   0  0  0  0  0  0  0  0  0  0  0  0
    2.9932    1.8651    0.0000 C   0  0  0  0  0  0  0  0  0  0  0  0
    1.6941    2.6151    0.0000 C   0  0  0  0  0  0  0  0  0  0  0  0
    0.3951    1.8651    0.0000 C   0  0  2  0  0  0  0  0  0  0  0  0
   -0.9039    2.6151    0.0000 C   0  0  0  0  0  0  0  0  0  0  0  0
   -2.2030    1.8651    0.0000 C   0  0  0  0  0  0  0  0  0  0  0  0
   -2.2030    0.3651    0.0000 C   0  0  2  0  0  0  0  0  0  0  0  0
   -0.9039   -0.3849    0.0000 C   0  0  2  0  0  0  0  0  0  0  0  0
   -0.9039   -1.8849    0.0000 C   0  0  0  0  0  0  0  0  0  0  0  0
   -2.2030   -2.6349    0.0000 C   0  0  0  0  0  0  0  0  0  0  0  0
   -3.5020   -1.8849    0.0000 C   0  0  1  0  0  0  0  0  0  0  0  0
   -3.6588   -3.3767    0.0000 C   0  0  0  0  0  0  0  0  0  0  0  0
   -3.5020   -0.3849    0.0000 C   0  0  1  0  0  0  0  0  0  0  0  0
   -4.9286    0.0786    0.0000 C   0  0  0  0  0  0  0  0  0  0  0  0
   -5.8103   -1.1349    0.0000 C   0  0  0  0  0  0  0  0  0  0  0  0
   -4.9286   -2.3484    0.0000 C   0  0  1  0  0  0  0  0  0  0  0  0
   -6.2276   -3.0984    0.0000 C   0  0  0  0  0  0  0  0  0  0  0  0
   -4.9809   -0.8493    0.0000 O   0  0  0  0  0  0  0  0  0  0  0  0
   -7.5267   -2.3484    0.0000 O   0  0  0  0  0  0  0  0  0  0  0  0
  2  1  1  1  0  0  0
  2  3  1  0  0  0  0
  3  4  1  0  0  0  0
  4  5  2  0  0  0  0
  5  6  1  0  0  0  0
  6  7  1  0  0  0  0
  7  8  2  0  0  0  0
  4  8  1  0  0  0  0
  8  9  1  0  0  0  0
 10  9  1  1  0  0  0
  2 10  1  0  0  0  0
 10 11  1  0  0  0  0
 11 12  1  0  0  0  0
 13 12  1  6  0  0  0
 13 14  1  0  0  0  0
  2 14  1  0  0  0  0
 14 15  1  1  0  0  0
 15 16  1  0  0  0  0
 16 17  1  0  0  0  0
 17 18  1  1  0  0  0
 17 19  1  0  0  0  0
 13 19  1  0  0  0  0
 19 20  1  1  0  0  0
 20 21  1  0  0  0  0
 22 21  1  6  0  0  0
 17 22  1  0  0  0  0
 22 23  1  0  0  0  0
 22 24  1  1  0  0  0
 25 23  1  0  0  0  0
M  END
> <InChI>
InChI=1S/C20H30N2O3/c1-18-10-17-16(21-25-22-17)9-12(18)3-4-13-14(18)5-7-19(2)15(13)6-8-20(19,24)11-23/h12-15,23-24H,3-11H2,1-2H3/t12-,13+,14-,15-,18-,19-,20+/m0/s1

> <InChIKey>
WKKZJIBMWLYSQT-QPTMDJAASA-N

> <SMILES>
C[C@]12CC3=NON=C3C[C@@H]1CC[C@@H]4[C@@H]2CC[C@@]5(C)[C@H]4CC[C@]5(CO)O

> <Synonyms>


> <PUBCHEM_CID>


> <Molecular_formula>
C20H30N2O3

> <Major_Isotope_Mass>
346.22564281999996

> <ALogP>
2.466100000000001

> <Lipinski_Violations>
0

> <Insecticide_Likeness_Violations>
0

> <Post_Em_Herbicide_Likeness_Violations>
0

> <Metabolite_ID>
BTM00007

> <Reaction>
Hydroxylation of methyl carbon adjacent to aliphatic ring

> <Reaction_ID>
BTMR0054

> <Enzyme(s)>
CYP2B6
CYP2C8
CYP2C9
CYP2C19
CYP2D6
CYP3A4

> <Biosystem>
HUMAN

> <Precursor_ID>


> <Precursor_SMILES>
C[C@]12CC3=NON=C3C[C@@H]1CC[C@@H]4[C@@H]2CC[C@@]5(C)[C@H]4CC[C@]5(C)O

> <Precursor_InChI>
InChI=1S/C20H30N2O2/c1-18-11-17-16(21-24-22-17)10-12(18)4-5-13-14(18)6-8-19(2)15(13)7-9-20(19,3)23/h12-15,23H,4-11H2,1-3H3/t12-,13+,14-,15-,18-,19-,20-/m0/s1

> <Precursor_InChIKey>
RGLLOUBXMOGLDQ-IVEVATEUSA-N

> <Precursor_ALogP>


> <Precursor_Major_Isotope_Mass>
330.2307

$$$$
BTM00008
  CDK     09122622092D

 25 29  0  0  1  0  0  0  0  0999 V2000
   -2.5266   -0.0330    0.0000 C   0  0  0  0  0  0  0  0  0  0  0  0
   -2.5266   -1.5330    0.0000 C   0  0  2  0  0  0  0  0  0  0  0  0
   -3.8257   -0.7830    0.0000 C   0  0  0  0  0  0  0  0  0  0  0  0
   -5.1247   -1.5330    0.0000 C   0  0  0  0  0  0  0  0  0  0  0  0
   -6.5513   -1.0695    0.0000 N   0  0  0  0  0  0  0  0  0  0  0  0
   -7.4330   -2.2830    0.0000 O   0  0  0  0  0  0  0  0  0  0  0  0
   -6.5513   -3.4966    0.0000 N   0  0  0  0  0  0  0  0  0  0  0  0
   -5.1247   -3.0330    0.0000 C   0  0  0  0  0  0  0  0  0  0  0  0
   -3.8257   -3.7830    0.0000 C   0  0  0  0  0  0  0  0  0  0  0  0
   -2.5266   -3.0330    0.0000 C   0  0  2  0  0  0  0  0  0  0  0  0
   -1.2276   -3.7830    0.0000 C   0  0  0  0  0  0  0  0  0  0  0  0
    0.0715   -3.0330    0.0000 C   0  0  0  0  0  0  0  0  0  0  0  0
    0.0715   -1.5330    0.0000 C   0  0  2  0  0  0  0  0  0  0  0  0
   -1.2276   -0.7830    0.0000 C   0  0  2  0  0  0  0  0  0  0  0  0
   -1.2276    0.7170    0.0000 C   0  0  0  0  0  0  0  0  0  0  0  0
    0.0715    1.4670    0.0000 C   0  0  0  0  0  0  0  0  0  0  0  0
    1.3705    0.7170    0.0000 C   0  0  1  0  0  0  0  0  0  0  0  0
    1.5273    2.2087    0.0000 C   0  0  0  0  0  0  0  0  0  0  0  0
    1.3705   -0.7830    0.0000 C   0  0  1  0  0  0  0  0  0  0  0  0
    2.7971   -1.2466    0.0000 C   0  0  0  0  0  0  0  0  0  0  0  0
    3.6788   -0.0330    0.0000 C   0  0  0  0  0  0  0  0  0  0  0  0
    2.7971    1.1805    0.0000 C   0  0  1  0  0  0  0  0  0  0  0  0
    4.0961    1.9305    0.0000 C   0  0  0  0  0  0  0  0  0  0  0  0
    2.4342    2.6359    0.0000 O   0  0  0  0  0  0  0  0  0  0  0  0
    0.3138    3.0904    0.0000 O   0  0  0  0  0  0  0  0  0  0  0  0
  2  1  1  1  0  0  0
  2  3  1  0  0  0  0
  3  4  1  0  0  0  0
  4  5  2  0  0  0  0
  5  6  1  0  0  0  0
  6  7  1  0  0  0  0
  7  8  2  0  0  0  0
  4  8  1  0  0  0  0
  8  9  1  0  0  0  0
 10  9  1  1  0  0  0
  2 10  1  0  0  0  0
 10 11  1  0  0  0  0
 11 12  1  0  0  0  0
 13 12  1  6  0  0  0
 13 14  1  0  0  0  0
  2 14  1  0  0  0  0
 14 15  1  1  0  0  0
 15 16  1  0  0  0  0
 16 17  1  0  0  0  0
 17 18  1  1  0  0  0
 17 19  1  0  0  0  0
 13 19  1  0  0  0  0
 19 20  1  1  0  0  0
 20 21  1  0  0  0  0
 21 22  1  0  0  0  0
 17 22  1  0  0  0  0
 22 23  1  6  0  0  0
 22 24  1  1  0  0  0
 25 18  1  0  0  0  0
M  END
> <InChI>
InChI=1S/C20H30N2O3/c1-18-10-17-16(21-25-22-17)9-12(18)3-4-13-14(18)6-8-20(11-23)15(13)5-7-19(20,2)24/h12-15,23-24H,3-11H2,1-2H3/t12-,13+,14-,15-,18-,19-,20+/m0/s1

> <InChIKey>
USGJSCVFXKDASZ-QPTMDJAASA-N

> <SMILES>
C[C@]12CC3=NON=C3C[C@@H]1CC[C@@H]4[C@@H]2CC[C@@]5(CO)[C@H]4CC[C@]5(C)O

> <Synonyms>


> <PUBCHEM_CID>


> <Molecular_formula>
C20H30N2O3

> <Major_Isotope_Mass>
346.22564281999996

> <ALogP>
2.263600000000001

> <Lipinski_Violations>
0

> <Insecticide_Likeness_Violations>
0

> <Post_Em_Herbicide_Likeness_Violations>
0

> <Metabolite_ID>
BTM00008

> <Reaction>
Hydroxylation of methyl carbon adjacent to aliphatic ring

> <Reaction_ID>
BTMR0054

> <Enzyme(s)>
CYP2B6
CYP2C8
CYP2C9
CYP2C19
CYP2D6
CYP3A4

> <Biosystem>
HUMAN

> <Precursor_ID>


> <Precursor_SMILES>
C[C@]12CC3=NON=C3C[C@@H]1CC[C@@H]4[C@@H]2CC[C@@]5(C)[C@H]4CC[C@]5(C)O

> <Precursor_InChI>
InChI=1S/C20H30N2O2/c1-18-11-17-16(21-24-22-17)10-12(18)4-5-13-14(18)6-8-19(2)15(13)7-9-20(19,3)23/h12-15,23H,4-11H2,1-3H3/t12-,13+,14-,15-,18-,19-,20-/m0/s1

> <Precursor_InChIKey>
RGLLOUBXMOGLDQ-IVEVATEUSA-N

> <Precursor_ALogP>


> <Precursor_Major_Isotope_Mass>
330.2307

$$$$
