BTM00001
  CDK     09122622102D

 23 26  0  0  1  0  0  0  0  0999 V2000
   -1.6800    1.1900    0.0000 C   0  0  0  0  0  0  0  0  0  0  0  0
   -1.6800   -0.3100    0.0000 C   0  0  2  0  0  0  0  0  0  0  0  0
   -2.9800    0.4400    0.0000 C   0  0  0  0  0  0  0  0  0  0  0  0
   -4.2800   -0.3100    0.0000 C   0  0  0  0  0  0  0  0  0  0  0  0
   -4.2800   -1.8100    0.0000 C   0  0  0  0  0  0  0  0  0  0  0  0
   -5.5789   -2.5602    0.0000 O   0  0  0  0  0  0  0  0  0  0  0  0
   -2.9800   -2.5600    0.0000 C   0  0  0  0  0  0  0  0  0  0  0  0
   -2.9800   -4.0600    0.0000 Cl  0  0  0  0  0  0  0  0  0  0  0  0
   -1.6800   -1.8100    0.0000 C   0  0  0  0  0  0  0  0  0  0  0  0
   -0.3800   -2.5600    0.0000 C   0  0  0  0  0  0  0  0  0  0  0  0
    0.9200   -1.8100    0.0000 C   0  0  0  0  0  0  0  0  0  0  0  0
    0.9200   -0.3100    0.0000 C   0  0  2  0  0  0  0  0  0  0  0  0
   -0.3800    0.4400    0.0000 C   0  0  2  0  0  0  0  0  0  0  0  0
   -0.3800    1.9400    0.0000 C   0  0  0  0  0  0  0  0  0  0  0  0
    0.9200    2.6900    0.0000 C   0  0  0  0  0  0  0  0  0  0  0  0
    2.2200    1.9400    0.0000 C   0  0  1  0  0  0  0  0  0  0  0  0
    2.3787    3.4316    0.0000 C   0  0  0  0  0  0  0  0  0  0  0  0
    2.2200    0.4400    0.0000 C   0  0  1  0  0  0  0  0  0  0  0  0
    3.6500   -0.0200    0.0000 C   0  0  0  0  0  0  0  0  0  0  0  0
    4.5300    1.1900    0.0000 C   0  0  0  0  0  0  0  0  0  0  0  0
    3.6500    2.4000    0.0000 C   0  0  1  0  0  0  0  0  0  0  0  0
    4.9495    3.1491    0.0000 C   0  0  0  0  0  0  0  0  0  0  0  0
    3.6962    0.9007    0.0000 O   0  0  0  0  0  0  0  0  0  0  0  0
  2  1  1  1  0  0  0
  2  3  1  0  0  0  0
  3  4  1  0  0  0  0
  4  5  1  0  0  0  0
  5  6  1  0  0  0  0
  5  7  1  0  0  0  0
  7  8  1  0  0  0  0
  7  9  2  0  0  0  0
  2  9  1  0  0  0  0
  9 10  1  0  0  0  0
 10 11  1  0  0  0  0
 12 11  1  6  0  0  0
 12 13  1  0  0  0  0
  2 13  1  0  0  0  0
 13 14  1  1  0  0  0
 14 15  1  0  0  0  0
 15 16  1  0  0  0  0
 16 17  1  1  0  0  0
 16 18  1  0  0  0  0
 12 18  1  0  0  0  0
 18 19  1  1  0  0  0
 19 20  1  0  0  0  0
 21 20  1  6  0  0  0
 16 21  1  0  0  0  0
 21 22  1  0  0  0  0
 21 23  1  1  0  0  0
M  END
> <InChI>
InChI=1S/C20H31ClO2/c1-18-9-8-16(22)17(21)15(18)5-4-12-13(18)6-10-19(2)14(12)7-11-20(19,3)23/h12-14,16,22-23H,4-11H2,1-3H3/t12-,13+,14+,16?,18-,19+,20+/m1/s1

> <InChIKey>
FWWFNYYTZPIJFZ-KYPBWNNHSA-N

> <SMILES>
C[C@]12CCC(O)C(Cl)=C1CC[C@@H]3[C@@H]2CC[C@@]4(C)[C@H]3CC[C@]4(C)O

> <Synonyms>


> <PUBCHEM_CID>


> <Molecular_formula>
C20H31ClO2

> <Major_Isotope_Mass>
338.201257912

> <ALogP>
3.9464999999999986

> <Lipinski_Violations>
0

> <Insecticide_Likeness_Violations>
0

> <Post_Em_Herbicide_Likeness_Violations>
0

> <Metabolite_ID>
BTM00001

> <Reaction>
Reduction of carbonyl

> <Reaction_ID>
BTMR0368

> <Enzyme(s)>
EC 1.1.1.184

> <Biosystem>
HUMAN

> <Precursor_ID>


> <Precursor_SMILES>
C[C@]12CCC(=O)C(Cl)=C1CC[C@@H]3[C@@H]2CC[C@@]4(C)[C@H]3CC[C@]4(C)O

> <Precursor_InChI>
InChI=1S/C20H29ClO2/c1-18-9-8-16(22)17(21)15(18)5-4-12-13(18)6-10-19(2)14(12)7-11-20(19,3)23/h12-14,23H,4-11H2,1-3H3/t12-,13+,14+,18-,19+,20+/m1/s1

> <Precursor_InChIKey>
SOMOGWLYTLQJGT-XMUHMHRVSA-N

> <Precursor_ALogP>


> <Precursor_Major_Isotope_Mass>
336.1856

$$$$
BTM00002
  CDK     09122622102D

 24 27  0  0  1  0  0  0  0  0999 V2000
   -1.6800    1.1900    0.0000 C   0  0  0  0  0  0  0  0  0  0  0  0
   -1.6800   -0.3100    0.0000 C   0  0  2  0  0  0  0  0  0  0  0  0
   -2.9800    0.4400    0.0000 C   0  0  0  0  0  0  0  0  0  0  0  0
   -4.2800   -0.3100    0.0000 C   0  0  0  0  0  0  0  0  0  0  0  0
   -4.2800   -1.8100    0.0000 C   0  0  0  0  0  0  0  0  0  0  0  0
   -5.5789   -2.5602    0.0000 O   0  0  0  0  0  0  0  0  0  0  0  0
   -2.9800   -2.5600    0.0000 C   0  0  0  0  0  0  0  0  0  0  0  0
   -2.9800   -4.0600    0.0000 Cl  0  0  0  0  0  0  0  0  0  0  0  0
   -1.6800   -1.8100    0.0000 C   0  0  0  0  0  0  0  0  0  0  0  0
   -0.3800   -2.5600    0.0000 C   0  0  0  0  0  0  0  0  0  0  0  0
    0.9200   -1.8100    0.0000 C   0  0  0  0  0  0  0  0  0  0  0  0
    0.9200   -0.3100    0.0000 C   0  0  2  0  0  0  0  0  0  0  0  0
   -0.3800    0.4400    0.0000 C   0  0  2  0  0  0  0  0  0  0  0  0
   -0.3800    1.9400    0.0000 C   0  0  0  0  0  0  0  0  0  0  0  0
    0.9200    2.6900    0.0000 C   0  0  0  0  0  0  0  0  0  0  0  0
    2.2200    1.9400    0.0000 C   0  0  1  0  0  0  0  0  0  0  0  0
    2.3787    3.4316    0.0000 C   0  0  0  0  0  0  0  0  0  0  0  0
    2.2200    0.4400    0.0000 C   0  0  1  0  0  0  0  0  0  0  0  0
    3.6500   -0.0200    0.0000 C   0  0  0  0  0  0  0  0  0  0  0  0
    4.5300    1.1900    0.0000 C   0  0  0  0  0  0  0  0  0  0  0  0
    3.6500    2.4000    0.0000 C   0  0  1  0  0  0  0  0  0  0  0  0
    4.9495    3.1491    0.0000 C   0  0  0  0  0  0  0  0  0  0  0  0
    3.6962    0.9007    0.0000 O   0  0  0  0  0  0  0  0  0  0  0  0
   -1.6789    2.6902    0.0000 O   0  0  0  0  0  0  0  0  0  0  0  0
  2  1  1  1  0  0  0
  2  3  1  0  0  0  0
  3  4  1  0  0  0  0
  4  5  1  0  0  0  0
  5  6  2  0  0  0  0
  5  7  1  0  0  0  0
  7  8  1  0  0  0  0
  7  9  2  0  0  0  0
  2  9  1  0  0  0  0
  9 10  1  0  0  0  0
 10 11  1  0  0  0  0
 12 11  1  6  0  0  0
 12 13  1  0  0  0  0
  2 13  1  0  0  0  0
 13 14  1  1  0  0  0
 14 15  1  0  0  0  0
 15 16  1  0  0  0  0
 16 17  1  1  0  0  0
 16 18  1  0  0  0  0
 12 18  1  0  0  0  0
 18 19  1  1  0  0  0
 19 20  1  0  0  0  0
 21 20  1  6  0  0  0
 16 21  1  0  0  0  0
 21 22  1  0  0  0  0
 21 23  1  1  0  0  0
 24 14  1  0  0  0  0
M  END
> <InChI>
InChI=1S/C20H29ClO3/c1-18-8-7-14(22)17(21)13(18)5-4-11-12-6-9-20(3,24)19(12,2)10-15(23)16(11)18/h11-12,15-16,23-24H,4-10H2,1-3H3/t11-,12-,15?,16+,18-,19-,20-/m0/s1

> <InChIKey>
YSVUQGXGWRJLTM-ULRZCWSPSA-N

> <SMILES>
C[C@]12CCC(=O)C(Cl)=C1CC[C@@H]3[C@@H]2C(C[C@@]4(C)[C@H]3CC[C@]4(C)O)O

> <Synonyms>


> <PUBCHEM_CID>


> <Molecular_formula>
C20H29ClO3

> <Major_Isotope_Mass>
352.180522468

> <ALogP>
2.7375999999999974

> <Lipinski_Violations>
0

> <Insecticide_Likeness_Violations>
0

> <Post_Em_Herbicide_Likeness_Violations>
0

> <Metabolite_ID>
BTM00002

> <Reaction>
11-beta-Hydroxylation of sterol

> <Reaction_ID>
BTMR0406

> <Enzyme(s)>
EC 1.14.15.4

> <Biosystem>
HUMAN

> <Precursor_ID>


> <Precursor_SMILES>
C[C@]12CCC(=O)C(Cl)=C1CC[C@@H]3[C@@H]2CC[C@@]4(C)[C@H]3CC[C@]4(C)O

> <Precursor_InChI>
InChI=1S/C20H29ClO2/c1-18-9-8-16(22)17(21)15(18)5-4-12-13(18)6-10-19(2)14(12)7-11-20(19,3)23/h12-14,23H,4-11H2,1-3H3/t12-,13+,14+,18-,19+,20+/m1/s1

> <Precursor_InChIKey>
SOMOGWLYTLQJGT-XMUHMHRVSA-N

> <Precursor_ALogP>


> <Precursor_Major_Isotope_Mass>
336.1856

$$$$
BTM00003
  CDK     09122622102D

 35 39  0  0  1  0  0  0  0  0999 V2000
   -1.4856    0.7511    0.0000 C   0  0  0  0  0  0  0  0  0  0  0  0
   -1.4856   -0.7489    0.0000 C   0  0  2  0  0  0  0  0  0  0  0  0
   -2.7856    0.0011    0.0000 C   0  0  0  0  0  0  0  0  0  0  0  0
   -4.0856   -0.7489    0.0000 C   0  0  0  0  0  0  0  0  0  0  0  0
   -4.0856   -2.2489    0.0000 C   0  0  0  0  0  0  0  0  0  0  0  0
   -5.3845   -2.9991    0.0000 O   0  0  0  0  0  0  0  0  0  0  0  0
   -2.7856   -2.9989    0.0000 C   0  0  0  0  0  0  0  0  0  0  0  0
   -2.7856   -4.4989    0.0000 Cl  0  0  0  0  0  0  0  0  0  0  0  0
   -1.4856   -2.2489    0.0000 C   0  0  0  0  0  0  0  0  0  0  0  0
   -0.1856   -2.9989    0.0000 C   0  0  0  0  0  0  0  0  0  0  0  0
    1.1144   -2.2489    0.0000 C   0  0  0  0  0  0  0  0  0  0  0  0
    1.1144   -0.7489    0.0000 C   0  0  2  0  0  0  0  0  0  0  0  0
   -0.1856    0.0011    0.0000 C   0  0  2  0  0  0  0  0  0  0  0  0
   -0.1856    1.5011    0.0000 C   0  0  0  0  0  0  0  0  0  0  0  0
    1.1144    2.2511    0.0000 C   0  0  0  0  0  0  0  0  0  0  0  0
    2.4144    1.5011    0.0000 C   0  0  1  0  0  0  0  0  0  0  0  0
    2.5732    2.9927    0.0000 C   0  0  0  0  0  0  0  0  0  0  0  0
    2.4144    0.0011    0.0000 C   0  0  1  0  0  0  0  0  0  0  0  0
    3.8444   -0.4589    0.0000 C   0  0  0  0  0  0  0  0  0  0  0  0
    4.7244    0.7511    0.0000 C   0  0  0  0  0  0  0  0  0  0  0  0
    3.8444    1.9611    0.0000 C   0  0  1  0  0  0  0  0  0  0  0  0
    5.1440    2.7103    0.0000 C   0  0  0  0  0  0  0  0  0  0  0  0
    3.0424    3.7714    0.0000 O   0  0  0  0  0  0  0  0  0  0  0  0
    1.8365    6.5132    0.0000 O   0  0  0  0  0  0  0  0  0  0  0  0
    3.3273    6.3477    0.0000 C   0  0  0  0  0  0  0  0  0  0  0  0
    4.2305    7.5742    0.0000 C   0  0  0  0  0  0  0  0  0  0  0  0
    3.6322    8.9497    0.0000 O   0  0  0  0  0  0  0  0  0  0  0  0
    5.7264    7.4008    0.0000 C   0  0  0  0  0  0  0  0  0  0  0  0
    6.6177    8.6072    0.0000 O   0  0  0  0  0  0  0  0  0  0  0  0
    6.3253    6.0364    0.0000 C   0  0  0  0  0  0  0  0  0  0  0  0
    5.4363    4.8272    0.0000 O   0  0  0  0  0  0  0  0  0  0  0  0
    3.9262    4.9834    0.0000 C   0  0  0  0  0  0  0  0  0  0  0  0
    7.8162    5.8716    0.0000 C   0  0  0  0  0  0  0  0  0  0  0  0
    8.7044    7.0803    0.0000 O   0  0  0  0  0  0  0  0  0  0  0  0
    8.4189    4.4980    0.0000 O   0  0  0  0  0  0  0  0  0  0  0  0
  2  1  1  1  0  0  0
  2  3  1  0  0  0  0
  3  4  1  0  0  0  0
  4  5  1  0  0  0  0
  5  6  2  0  0  0  0
  5  7  1  0  0  0  0
  7  8  1  0  0  0  0
  7  9  2  0  0  0  0
  2  9  1  0  0  0  0
  9 10  1  0  0  0  0
 10 11  1  0  0  0  0
 12 11  1  6  0  0  0
 12 13  1  0  0  0  0
  2 13  1  0  0  0  0
 13 14  1  1  0  0  0
 14 15  1  0  0  0  0
 15 16  1  0  0  0  0
 16 17  1  1  0  0  0
 16 18  1  0  0  0  0
 12 18  1  0  0  0  0
 18 19  1  1  0  0  0
 19 20  1  0  0  0  0
 20 21  1  0  0  0  0
 16 21  1  0  0  0  0
 21 22  1  6  0  0  0
 21 23  1  1  0  0  0
 24 25  1  0  0  0  0
 25 26  1  0  0  0  0
 26 27  1  0  0  0  0
 26 28  1  0  0  0  0
 28 29  1  0  0  0  0
 28 30  1  0  0  0  0
 30 31  1  0  0  0  0
 31 32  1  0  0  0  0
 25 32  1  0  0  0  0
 32 23  1  0  0  0  0
 30 33  1  0  0  0  0
 33 34  1  0  0  0  0
 33 35  2  0  0  0  0
M  END
> <InChI>
InChI=1S/C26H37ClO8/c1-24-9-8-16(28)17(27)15(24)5-4-12-13(24)6-10-25(2)14(12)7-11-26(25,3)35-23-20(31)18(29)19(30)21(34-23)22(32)33/h12-14,18-21,23,29-31H,4-11H2,1-3H3,(H,32,33)/t12-,13+,14+,18?,19?,20?,21?,23?,24-,25+,26+/m1/s1

> <InChIKey>
PBXJXROILGBPCF-YOHAQRRYSA-N

> <SMILES>
C[C@]12CCC(=O)C(Cl)=C1CC[C@@H]3[C@@H]2CC[C@@]4(C)[C@H]3CC[C@]4(C)OC5OC(C(C(C5O)O)O)C(O)=O

> <Synonyms>


> <PUBCHEM_CID>


> <Molecular_formula>
C26H37ClO8

> <Major_Isotope_Mass>
512.217695824

> <ALogP>
2.368999999999994

> <Lipinski_Violations>
1

> <Insecticide_Likeness_Violations>
1

> <Post_Em_Herbicide_Likeness_Violations>
1

> <Metabolite_ID>
BTM00003

> <Reaction>
17-OH-Glucuronidation of sterol

> <Reaction_ID>
BTMR0163

> <Enzyme(s)>
EC 2.4.1.17

> <Biosystem>
HUMAN

> <Precursor_ID>


> <Precursor_SMILES>
C[C@]12CCC(=O)C(Cl)=C1CC[C@@H]3[C@@H]2CC[C@@]4(C)[C@H]3CC[C@]4(C)O

> <Precursor_InChI>
InChI=1S/C20H29ClO2/c1-18-9-8-16(22)17(21)15(18)5-4-12-13(18)6-10-19(2)14(12)7-11-20(19,3)23/h12-14,23H,4-11H2,1-3H3/t12-,13+,14+,18-,19+,20+/m1/s1

> <Precursor_InChIKey>
SOMOGWLYTLQJGT-XMUHMHRVSA-N

> <Precursor_ALogP>


> <Precursor_Major_Isotope_Mass>
336.1856

$$$$
BTM00004
  CDK     09122622102D

 24 27  0  0  1  0  0  0  0  0999 V2000
   -1.6800    1.1900    0.0000 C   0  0  0  0  0  0  0  0  0  0  0  0
   -1.6800   -0.3100    0.0000 C   0  0  2  0  0  0  0  0  0  0  0  0
   -2.9800    0.4400    0.0000 C   0  0  0  0  0  0  0  0  0  0  0  0
   -4.2800   -0.3100    0.0000 C   0  0  0  0  0  0  0  0  0  0  0  0
   -4.2800   -1.8100    0.0000 C   0  0  0  0  0  0  0  0  0  0  0  0
   -5.5789   -2.5602    0.0000 O   0  0  0  0  0  0  0  0  0  0  0  0
   -2.9800   -2.5600    0.0000 C   0  0  0  0  0  0  0  0  0  0  0  0
   -2.9800   -4.0600    0.0000 Cl  0  0  0  0  0  0  0  0  0  0  0  0
   -1.6800   -1.8100    0.0000 C   0  0  0  0  0  0  0  0  0  0  0  0
   -0.3800   -2.5600    0.0000 C   0  0  0  0  0  0  0  0  0  0  0  0
    0.9200   -1.8100    0.0000 C   0  0  0  0  0  0  0  0  0  0  0  0
    0.9200   -0.3100    0.0000 C   0  0  2  0  0  0  0  0  0  0  0  0
   -0.3800    0.4400    0.0000 C   0  0  2  0  0  0  0  0  0  0  0  0
   -0.3800    1.9400    0.0000 C   0  0  0  0  0  0  0  0  0  0  0  0
    0.9200    2.6900    0.0000 C   0  0  0  0  0  0  0  0  0  0  0  0
    2.2200    1.9400    0.0000 C   0  0  1  0  0  0  0  0  0  0  0  0
    2.3787    3.4316    0.0000 C   0  0  0  0  0  0  0  0  0  0  0  0
    2.2200    0.4400    0.0000 C   0  0  1  0  0  0  0  0  0  0  0  0
    3.6500   -0.0200    0.0000 C   0  0  0  0  0  0  0  0  0  0  0  0
    4.5300    1.1900    0.0000 C   0  0  0  0  0  0  0  0  0  0  0  0
    3.6500    2.4000    0.0000 C   0  0  1  0  0  0  0  0  0  0  0  0
    4.9495    3.1491    0.0000 C   0  0  0  0  0  0  0  0  0  0  0  0
    3.6962    0.9007    0.0000 O   0  0  0  0  0  0  0  0  0  0  0  0
    6.0300    1.1900    0.0000 O   0  0  0  0  0  0  0  0  0  0  0  0
  2  1  1  1  0  0  0
  2  3  1  0  0  0  0
  3  4  1  0  0  0  0
  4  5  1  0  0  0  0
  5  6  2  0  0  0  0
  5  7  1  0  0  0  0
  7  8  1  0  0  0  0
  7  9  2  0  0  0  0
  2  9  1  0  0  0  0
  9 10  1  0  0  0  0
 10 11  1  0  0  0  0
 12 11  1  6  0  0  0
 12 13  1  0  0  0  0
  2 13  1  0  0  0  0
 13 14  1  1  0  0  0
 14 15  1  0  0  0  0
 15 16  1  0  0  0  0
 16 17  1  1  0  0  0
 16 18  1  0  0  0  0
 12 18  1  0  0  0  0
 18 19  1  1  0  0  0
 19 20  1  0  0  0  0
 20 21  1  0  0  0  0
 16 21  1  0  0  0  0
 21 22  1  0  0  0  0
 21 23  1  1  0  0  0
 24 20  1  0  0  0  0
M  END
> <InChI>
InChI=1S/C20H29ClO3/c1-18-8-7-15(22)17(21)13(18)5-4-11-12(18)6-9-19(2)14(11)10-16(23)20(19,3)24/h11-12,14,16,23-24H,4-10H2,1-3H3/t11-,12+,14+,16?,18-,19+,20+/m1/s1

> <InChIKey>
OZYGRYSYLUATEC-TWWWWGCZSA-N

> <SMILES>
C[C@]12CCC(=O)C(Cl)=C1CC[C@@H]3[C@@H]2CC[C@@]4(C)[C@H]3CC([C@]4(C)O)O

> <Synonyms>


> <PUBCHEM_CID>


> <Molecular_formula>
C20H29ClO3

> <Major_Isotope_Mass>
352.180522468

> <ALogP>
2.9400999999999966

> <Lipinski_Violations>
0

> <Insecticide_Likeness_Violations>
0

> <Post_Em_Herbicide_Likeness_Violations>
0

> <Metabolite_ID>
BTM00004

> <Reaction>
16-Hydroxylation of sterol

> <Reaction_ID>
BTMR0407

> <Enzyme(s)>
CYP1A2
CYP2A6
CYP2B6
CYP2C8
CYP2C9
CYP2C19
CYP2D6
CYP2E1
CYP3A4

> <Biosystem>
HUMAN

> <Precursor_ID>


> <Precursor_SMILES>
C[C@]12CCC(=O)C(Cl)=C1CC[C@@H]3[C@@H]2CC[C@@]4(C)[C@H]3CC[C@]4(C)O

> <Precursor_InChI>
InChI=1S/C20H29ClO2/c1-18-9-8-16(22)17(21)15(18)5-4-12-13(18)6-10-19(2)14(12)7-11-20(19,3)23/h12-14,23H,4-11H2,1-3H3/t12-,13+,14+,18-,19+,20+/m1/s1

> <Precursor_InChIKey>
SOMOGWLYTLQJGT-XMUHMHRVSA-N

> <Precursor_ALogP>


> <Precursor_Major_Isotope_Mass>
336.1856

$$$$
BTM00005
  CDK     09122622102D

 24 27  0  0  1  0  0  0  0  0999 V2000
   -1.6800    1.1900    0.0000 C   0  0  0  0  0  0  0  0  0  0  0  0
   -1.6800   -0.3100    0.0000 C   0  0  2  0  0  0  0  0  0  0  0  0
   -2.9800    0.4400    0.0000 C   0  0  0  0  0  0  0  0  0  0  0  0
   -4.2800   -0.3100    0.0000 C   0  0  0  0  0  0  0  0  0  0  0  0
   -4.2800   -1.8100    0.0000 C   0  0  0  0  0  0  0  0  0  0  0  0
   -5.5789   -2.5602    0.0000 O   0  0  0  0  0  0  0  0  0  0  0  0
   -2.9800   -2.5600    0.0000 C   0  0  0  0  0  0  0  0  0  0  0  0
   -2.9800   -4.0600    0.0000 Cl  0  0  0  0  0  0  0  0  0  0  0  0
   -1.6800   -1.8100    0.0000 C   0  0  0  0  0  0  0  0  0  0  0  0
   -0.3800   -2.5600    0.0000 C   0  0  0  0  0  0  0  0  0  0  0  0
    0.9200   -1.8100    0.0000 C   0  0  0  0  0  0  0  0  0  0  0  0
    0.9200   -0.3100    0.0000 C   0  0  2  0  0  0  0  0  0  0  0  0
   -0.3800    0.4400    0.0000 C   0  0  2  0  0  0  0  0  0  0  0  0
   -0.3800    1.9400    0.0000 C   0  0  0  0  0  0  0  0  0  0  0  0
    0.9200    2.6900    0.0000 C   0  0  0  0  0  0  0  0  0  0  0  0
    2.2200    1.9400    0.0000 C   0  0  1  0  0  0  0  0  0  0  0  0
    2.3787    3.4316    0.0000 C   0  0  0  0  0  0  0  0  0  0  0  0
    2.2200    0.4400    0.0000 C   0  0  1  0  0  0  0  0  0  0  0  0
    3.6500   -0.0200    0.0000 C   0  0  0  0  0  0  0  0  0  0  0  0
    4.5300    1.1900    0.0000 C   0  0  0  0  0  0  0  0  0  0  0  0
    3.6500    2.4000    0.0000 C   0  0  1  0  0  0  0  0  0  0  0  0
    4.9495    3.1491    0.0000 C   0  0  0  0  0  0  0  0  0  0  0  0
    3.6962    0.9007    0.0000 O   0  0  0  0  0  0  0  0  0  0  0  0
   -5.5789    0.4402    0.0000 O   0  0  0  0  0  0  0  0  0  0  0  0
  2  1  1  1  0  0  0
  2  3  1  0  0  0  0
  3  4  1  0  0  0  0
  4  5  1  0  0  0  0
  5  6  2  0  0  0  0
  5  7  1  0  0  0  0
  7  8  1  0  0  0  0
  7  9  2  0  0  0  0
  2  9  1  0  0  0  0
  9 10  1  0  0  0  0
 10 11  1  0  0  0  0
 12 11  1  6  0  0  0
 12 13  1  0  0  0  0
  2 13  1  0  0  0  0
 13 14  1  1  0  0  0
 14 15  1  0  0  0  0
 15 16  1  0  0  0  0
 16 17  1  1  0  0  0
 16 18  1  0  0  0  0
 12 18  1  0  0  0  0
 18 19  1  1  0  0  0
 19 20  1  0  0  0  0
 21 20  1  6  0  0  0
 16 21  1  0  0  0  0
 21 22  1  0  0  0  0
 21 23  1  1  0  0  0
 24  4  1  0  0  0  0
M  END
> <InChI>
InChI=1S/C20H29ClO3/c1-18-10-15(22)17(23)16(21)14(18)5-4-11-12(18)6-8-19(2)13(11)7-9-20(19,3)24/h11-13,15,22,24H,4-10H2,1-3H3/t11-,12+,13+,15?,18-,19+,20+/m1/s1

> <InChIKey>
MKJRVRNWOJHUOA-NMXZJOHESA-N

> <SMILES>
C[C@]12CC(C(=O)C(Cl)=C1CC[C@@H]3[C@@H]2CC[C@@]4(C)[C@H]3CC[C@]4(C)O)O

> <Synonyms>


> <PUBCHEM_CID>


> <Molecular_formula>
C20H29ClO3

> <Major_Isotope_Mass>
352.180522468

> <ALogP>
3.226499999999997

> <Lipinski_Violations>
0

> <Insecticide_Likeness_Violations>
0

> <Post_Em_Herbicide_Likeness_Violations>
0

> <Metabolite_ID>
BTM00005

> <Reaction>
2-Hydroxylation of sterol

> <Reaction_ID>
BTMR0398

> <Enzyme(s)>
CYP1A2
CYP2C19
CYP3A4

> <Biosystem>
HUMAN

> <Precursor_ID>


> <Precursor_SMILES>
C[C@]12CCC(=O)C(Cl)=C1CC[C@@H]3[C@@H]2CC[C@@]4(C)[C@H]3CC[C@]4(C)O

> <Precursor_InChI>
InChI=1S/C20H29ClO2/c1-18-9-8-16(22)17(21)15(18)5-4-12-13(18)6-10-19(2)14(12)7-11-20(19,3)23/h12-14,23H,4-11H2,1-3H3/t12-,13+,14+,18-,19+,20+/m1/s1

> <Precursor_InChIKey>
SOMOGWLYTLQJGT-XMUHMHRVSA-N

> <Precursor_ALogP>


> <Precursor_Major_Isotope_Mass>
336.1856

$$$$
BTM00006
  CDK     09122622102D

 24 27  0  0  1  0  0  0  0  0999 V2000
   -1.6800    1.1900    0.0000 C   0  0  0  0  0  0  0  0  0  0  0  0
   -1.6800   -0.3100    0.0000 C   0  0  2  0  0  0  0  0  0  0  0  0
   -2.9800    0.4400    0.0000 C   0  0  0  0  0  0  0  0  0  0  0  0
   -4.2800   -0.3100    0.0000 C   0  0  0  0  0  0  0  0  0  0  0  0
   -4.2800   -1.8100    0.0000 C   0  0  0  0  0  0  0  0  0  0  0  0
   -5.5789   -2.5602    0.0000 O   0  0  0  0  0  0  0  0  0  0  0  0
   -2.9800   -2.5600    0.0000 C   0  0  0  0  0  0  0  0  0  0  0  0
   -2.9800   -4.0600    0.0000 Cl  0  0  0  0  0  0  0  0  0  0  0  0
   -1.6800   -1.8100    0.0000 C   0  0  0  0  0  0  0  0  0  0  0  0
   -0.3800   -2.5600    0.0000 C   0  0  0  0  0  0  0  0  0  0  0  0
    0.9200   -1.8100    0.0000 C   0  0  0  0  0  0  0  0  0  0  0  0
    0.9200   -0.3100    0.0000 C   0  0  2  0  0  0  0  0  0  0  0  0
   -0.3800    0.4400    0.0000 C   0  0  2  0  0  0  0  0  0  0  0  0
   -0.3800    1.9400    0.0000 C   0  0  0  0  0  0  0  0  0  0  0  0
    0.9200    2.6900    0.0000 C   0  0  0  0  0  0  0  0  0  0  0  0
    2.2200    1.9400    0.0000 C   0  0  1  0  0  0  0  0  0  0  0  0
    2.3787    3.4316    0.0000 C   0  0  0  0  0  0  0  0  0  0  0  0
    2.2200    0.4400    0.0000 C   0  0  1  0  0  0  0  0  0  0  0  0
    3.6500   -0.0200    0.0000 C   0  0  0  0  0  0  0  0  0  0  0  0
    4.5300    1.1900    0.0000 C   0  0  0  0  0  0  0  0  0  0  0  0
    3.6500    2.4000    0.0000 C   0  0  1  0  0  0  0  0  0  0  0  0
    4.9495    3.1491    0.0000 C   0  0  0  0  0  0  0  0  0  0  0  0
    3.6962    0.9007    0.0000 O   0  0  0  0  0  0  0  0  0  0  0  0
   -0.3800   -4.0600    0.0000 O   0  0  0  0  0  0  0  0  0  0  0  0
  2  1  1  1  0  0  0
  2  3  1  0  0  0  0
  3  4  1  0  0  0  0
  4  5  1  0  0  0  0
  5  6  2  0  0  0  0
  5  7  1  0  0  0  0
  7  8  1  0  0  0  0
  7  9  2  0  0  0  0
  2  9  1  0  0  0  0
  9 10  1  0  0  0  0
 10 11  1  0  0  0  0
 12 11  1  6  0  0  0
 12 13  1  0  0  0  0
  2 13  1  0  0  0  0
 13 14  1  1  0  0  0
 14 15  1  0  0  0  0
 15 16  1  0  0  0  0
 16 17  1  1  0  0  0
 16 18  1  0  0  0  0
 12 18  1  0  0  0  0
 18 19  1  1  0  0  0
 19 20  1  0  0  0  0
 21 20  1  6  0  0  0
 16 21  1  0  0  0  0
 21 22  1  0  0  0  0
 21 23  1  1  0  0  0
 24 10  1  0  0  0  0
M  END
> <InChI>
InChI=1S/C20H29ClO3/c1-18-7-6-14(22)17(21)16(18)15(23)10-11-12(18)4-8-19(2)13(11)5-9-20(19,3)24/h11-13,15,23-24H,4-10H2,1-3H3/t11-,12+,13+,15?,18-,19+,20+/m1/s1

> <InChIKey>
QRNAZYYMXXJKRV-NMXZJOHESA-N

> <SMILES>
C[C@]12CCC(=O)C(Cl)=C1C(C[C@@H]3[C@@H]2CC[C@@]4(C)[C@H]3CC[C@]4(C)O)O

> <Synonyms>


> <PUBCHEM_CID>


> <Molecular_formula>
C20H29ClO3

> <Major_Isotope_Mass>
352.180522468

> <ALogP>
2.8050999999999973

> <Lipinski_Violations>
0

> <Insecticide_Likeness_Violations>
0

> <Post_Em_Herbicide_Likeness_Violations>
0

> <Metabolite_ID>
BTM00006

> <Reaction>
6-Hydroxylation of sterol

> <Reaction_ID>
BTMR0402

> <Enzyme(s)>
CYP2A6
CYP2B6
CYP2C8
CYP2C9
CYP2C19
CYP2D6
CYP3A4

> <Biosystem>
HUMAN

> <Precursor_ID>


> <Precursor_SMILES>
C[C@]12CCC(=O)C(Cl)=C1CC[C@@H]3[C@@H]2CC[C@@]4(C)[C@H]3CC[C@]4(C)O

> <Precursor_InChI>
InChI=1S/C20H29ClO2/c1-18-9-8-16(22)17(21)15(18)5-4-12-13(18)6-10-19(2)14(12)7-11-20(19,3)23/h12-14,23H,4-11H2,1-3H3/t12-,13+,14+,18-,19+,20+/m1/s1

> <Precursor_InChIKey>
SOMOGWLYTLQJGT-XMUHMHRVSA-N

> <Precursor_ALogP>


> <Precursor_Major_Isotope_Mass>
336.1856

$$$$
BTM00007
  CDK     09122622102D

 24 27  0  0  1  0  0  0  0  0999 V2000
   -1.6800    1.1900    0.0000 C   0  0  0  0  0  0  0  0  0  0  0  0
   -1.6800   -0.3100    0.0000 C   0  0  2  0  0  0  0  0  0  0  0  0
   -2.9800    0.4400    0.0000 C   0  0  0  0  0  0  0  0  0  0  0  0
   -4.2800   -0.3100    0.0000 C   0  0  0  0  0  0  0  0  0  0  0  0
   -4.2800   -1.8100    0.0000 C   0  0  0  0  0  0  0  0  0  0  0  0
   -5.5789   -2.5602    0.0000 O   0  0  0  0  0  0  0  0  0  0  0  0
   -2.9800   -2.5600    0.0000 C   0  0  0  0  0  0  0  0  0  0  0  0
   -2.9800   -4.0600    0.0000 Cl  0  0  0  0  0  0  0  0  0  0  0  0
   -1.6800   -1.8100    0.0000 C   0  0  0  0  0  0  0  0  0  0  0  0
   -0.3800   -2.5600    0.0000 C   0  0  0  0  0  0  0  0  0  0  0  0
    0.9200   -1.8100    0.0000 C   0  0  0  0  0  0  0  0  0  0  0  0
    0.9200   -0.3100    0.0000 C   0  0  2  0  0  0  0  0  0  0  0  0
   -0.3800    0.4400    0.0000 C   0  0  2  0  0  0  0  0  0  0  0  0
   -0.3800    1.9400    0.0000 C   0  0  0  0  0  0  0  0  0  0  0  0
    0.9200    2.6900    0.0000 C   0  0  0  0  0  0  0  0  0  0  0  0
    2.2200    1.9400    0.0000 C   0  0  1  0  0  0  0  0  0  0  0  0
    2.3787    3.4316    0.0000 C   0  0  0  0  0  0  0  0  0  0  0  0
    2.2200    0.4400    0.0000 C   0  0  1  0  0  0  0  0  0  0  0  0
    3.6500   -0.0200    0.0000 C   0  0  0  0  0  0  0  0  0  0  0  0
    4.5300    1.1900    0.0000 C   0  0  0  0  0  0  0  0  0  0  0  0
    3.6500    2.4000    0.0000 C   0  0  1  0  0  0  0  0  0  0  0  0
    4.9495    3.1491    0.0000 C   0  0  0  0  0  0  0  0  0  0  0  0
    3.6962    0.9007    0.0000 O   0  0  0  0  0  0  0  0  0  0  0  0
   -2.9790    1.9400    0.0000 O   0  0  0  0  0  0  0  0  0  0  0  0
  2  1  1  1  0  0  0
  2  3  1  0  0  0  0
  3  4  1  0  0  0  0
  4  5  1  0  0  0  0
  5  6  2  0  0  0  0
  5  7  1  0  0  0  0
  7  8  1  0  0  0  0
  7  9  2  0  0  0  0
  2  9  1  0  0  0  0
  9 10  1  0  0  0  0
 10 11  1  0  0  0  0
 12 11  1  6  0  0  0
 12 13  1  0  0  0  0
  2 13  1  0  0  0  0
 13 14  1  1  0  0  0
 14 15  1  0  0  0  0
 15 16  1  0  0  0  0
 16 17  1  1  0  0  0
 16 18  1  0  0  0  0
 12 18  1  0  0  0  0
 18 19  1  1  0  0  0
 19 20  1  0  0  0  0
 21 20  1  6  0  0  0
 16 21  1  0  0  0  0
 21 22  1  0  0  0  0
 21 23  1  1  0  0  0
 24  1  1  0  0  0  0
M  END
> <InChI>
InChI=1S/C20H29ClO3/c1-18-8-5-14-12(13(18)6-9-19(18,2)24)3-4-15-17(21)16(23)7-10-20(14,15)11-22/h12-14,22,24H,3-11H2,1-2H3/t12-,13-,14-,18-,19-,20-/m0/s1

> <InChIKey>
FRDHJSPFNLSJIT-PMJKSVPMSA-N

> <SMILES>
C([C@]12CCC(=O)C(Cl)=C1CC[C@@H]3[C@@H]2CC[C@@]4(C)[C@H]3CC[C@]4(C)O)O

> <Synonyms>


> <PUBCHEM_CID>


> <Molecular_formula>
C20H29ClO3

> <Major_Isotope_Mass>
352.180522468

> <ALogP>
2.8162999999999982

> <Lipinski_Violations>
0

> <Insecticide_Likeness_Violations>
0

> <Post_Em_Herbicide_Likeness_Violations>
0

> <Metabolite_ID>
BTM00007

> <Reaction>
Hydroxylation of methyl carbon adjacent to aliphatic ring

> <Reaction_ID>
BTMR0054

> <Enzyme(s)>
CYP2B6
CYP2C8
CYP2C9
CYP2C19
CYP2D6
CYP3A4

> <Biosystem>
HUMAN

> <Precursor_ID>


> <Precursor_SMILES>
C[C@]12CCC(=O)C(Cl)=C1CC[C@@H]3[C@@H]2CC[C@@]4(C)[C@H]3CC[C@]4(C)O

> <Precursor_InChI>
InChI=1S/C20H29ClO2/c1-18-9-8-16(22)17(21)15(18)5-4-12-13(18)6-10-19(2)14(12)7-11-20(19,3)23/h12-14,23H,4-11H2,1-3H3/t12-,13+,14+,18-,19+,20+/m1/s1

> <Precursor_InChIKey>
SOMOGWLYTLQJGT-XMUHMHRVSA-N

> <Precursor_ALogP>


> <Precursor_Major_Isotope_Mass>
336.1856

$$$$
BTM00008
  CDK     09122622102D

 24 27  0  0  1  0  0  0  0  0999 V2000
   -1.6800    1.1900    0.0000 C   0  0  0  0  0  0  0  0  0  0  0  0
   -1.6800   -0.3100    0.0000 C   0  0  2  0  0  0  0  0  0  0  0  0
   -2.9800    0.4400    0.0000 C   0  0  0  0  0  0  0  0  0  0  0  0
   -4.2800   -0.3100    0.0000 C   0  0  0  0  0  0  0  0  0  0  0  0
   -4.2800   -1.8100    0.0000 C   0  0  0  0  0  0  0  0  0  0  0  0
   -5.5789   -2.5602    0.0000 O   0  0  0  0  0  0  0  0  0  0  0  0
   -2.9800   -2.5600    0.0000 C   0  0  0  0  0  0  0  0  0  0  0  0
   -2.9800   -4.0600    0.0000 Cl  0  0  0  0  0  0  0  0  0  0  0  0
   -1.6800   -1.8100    0.0000 C   0  0  0  0  0  0  0  0  0  0  0  0
   -0.3800   -2.5600    0.0000 C   0  0  0  0  0  0  0  0  0  0  0  0
    0.9200   -1.8100    0.0000 C   0  0  0  0  0  0  0  0  0  0  0  0
    0.9200   -0.3100    0.0000 C   0  0  2  0  0  0  0  0  0  0  0  0
   -0.3800    0.4400    0.0000 C   0  0  2  0  0  0  0  0  0  0  0  0
   -0.3800    1.9400    0.0000 C   0  0  0  0  0  0  0  0  0  0  0  0
    0.9200    2.6900    0.0000 C   0  0  0  0  0  0  0  0  0  0  0  0
    2.2200    1.9400    0.0000 C   0  0  1  0  0  0  0  0  0  0  0  0
    2.3787    3.4316    0.0000 C   0  0  0  0  0  0  0  0  0  0  0  0
    2.2200    0.4400    0.0000 C   0  0  1  0  0  0  0  0  0  0  0  0
    3.6500   -0.0200    0.0000 C   0  0  0  0  0  0  0  0  0  0  0  0
    4.5300    1.1900    0.0000 C   0  0  0  0  0  0  0  0  0  0  0  0
    3.6500    2.4000    0.0000 C   0  0  1  0  0  0  0  0  0  0  0  0
    4.9495    3.1491    0.0000 C   0  0  0  0  0  0  0  0  0  0  0  0
    3.6962    0.9007    0.0000 O   0  0  0  0  0  0  0  0  0  0  0  0
    4.9505    4.6491    0.0000 O   0  0  0  0  0  0  0  0  0  0  0  0
  2  1  1  1  0  0  0
  2  3  1  0  0  0  0
  3  4  1  0  0  0  0
  4  5  1  0  0  0  0
  5  6  2  0  0  0  0
  5  7  1  0  0  0  0
  7  8  1  0  0  0  0
  7  9  2  0  0  0  0
  2  9  1  0  0  0  0
  9 10  1  0  0  0  0
 10 11  1  0  0  0  0
 12 11  1  6  0  0  0
 12 13  1  0  0  0  0
  2 13  1  0  0  0  0
 13 14  1  1  0  0  0
 14 15  1  0  0  0  0
 15 16  1  0  0  0  0
 16 17  1  1  0  0  0
 16 18  1  0  0  0  0
 12 18  1  0  0  0  0
 18 19  1  1  0  0  0
 19 20  1  0  0  0  0
 21 20  1  6  0  0  0
 16 21  1  0  0  0  0
 21 22  1  0  0  0  0
 21 23  1  1  0  0  0
 24 22  1  0  0  0  0
M  END
> <InChI>
InChI=1S/C20H29ClO3/c1-18-8-7-16(23)17(21)15(18)4-3-12-13(18)5-9-19(2)14(12)6-10-20(19,24)11-22/h12-14,22,24H,3-11H2,1-2H3/t12-,13+,14+,18-,19+,20-/m1/s1

> <InChIKey>
XYPHNNCDKQMNGF-NTSZXJHNSA-N

> <SMILES>
C[C@]12CCC(=O)C(Cl)=C1CC[C@@H]3[C@@H]2CC[C@@]4(C)[C@H]3CC[C@]4(CO)O

> <Synonyms>


> <PUBCHEM_CID>


> <Molecular_formula>
C20H29ClO3

> <Major_Isotope_Mass>
352.180522468

> <ALogP>
3.0187999999999997

> <Lipinski_Violations>
0

> <Insecticide_Likeness_Violations>
0

> <Post_Em_Herbicide_Likeness_Violations>
0

> <Metabolite_ID>
BTM00008

> <Reaction>
Hydroxylation of methyl carbon adjacent to aliphatic ring

> <Reaction_ID>
BTMR0054

> <Enzyme(s)>
CYP2B6
CYP2C8
CYP2C9
CYP2C19
CYP2D6
CYP3A4

> <Biosystem>
HUMAN

> <Precursor_ID>


> <Precursor_SMILES>
C[C@]12CCC(=O)C(Cl)=C1CC[C@@H]3[C@@H]2CC[C@@]4(C)[C@H]3CC[C@]4(C)O

> <Precursor_InChI>
InChI=1S/C20H29ClO2/c1-18-9-8-16(22)17(21)15(18)5-4-12-13(18)6-10-19(2)14(12)7-11-20(19,3)23/h12-14,23H,4-11H2,1-3H3/t12-,13+,14+,18-,19+,20+/m1/s1

> <Precursor_InChIKey>
SOMOGWLYTLQJGT-XMUHMHRVSA-N

> <Precursor_ALogP>


> <Precursor_Major_Isotope_Mass>
336.1856

$$$$
BTM00009
  CDK     09122622102D

 24 27  0  0  1  0  0  0  0  0999 V2000
   -1.6800    1.1900    0.0000 C   0  0  0  0  0  0  0  0  0  0  0  0
   -1.6800   -0.3100    0.0000 C   0  0  2  0  0  0  0  0  0  0  0  0
   -2.9800    0.4400    0.0000 C   0  0  0  0  0  0  0  0  0  0  0  0
   -4.2800   -0.3100    0.0000 C   0  0  0  0  0  0  0  0  0  0  0  0
   -4.2800   -1.8100    0.0000 C   0  0  0  0  0  0  0  0  0  0  0  0
   -5.5789   -2.5602    0.0000 O   0  0  0  0  0  0  0  0  0  0  0  0
   -2.9800   -2.5600    0.0000 C   0  0  0  0  0  0  0  0  0  0  0  0
   -2.9800   -4.0600    0.0000 Cl  0  0  0  0  0  0  0  0  0  0  0  0
   -1.6800   -1.8100    0.0000 C   0  0  0  0  0  0  0  0  0  0  0  0
   -0.3800   -2.5600    0.0000 C   0  0  0  0  0  0  0  0  0  0  0  0
    0.9200   -1.8100    0.0000 C   0  0  0  0  0  0  0  0  0  0  0  0
    0.9200   -0.3100    0.0000 C   0  0  2  0  0  0  0  0  0  0  0  0
   -0.3800    0.4400    0.0000 C   0  0  2  0  0  0  0  0  0  0  0  0
   -0.3800    1.9400    0.0000 C   0  0  0  0  0  0  0  0  0  0  0  0
    0.9200    2.6900    0.0000 C   0  0  0  0  0  0  0  0  0  0  0  0
    2.2200    1.9400    0.0000 C   0  0  1  0  0  0  0  0  0  0  0  0
    2.3787    3.4316    0.0000 C   0  0  0  0  0  0  0  0  0  0  0  0
    2.2200    0.4400    0.0000 C   0  0  1  0  0  0  0  0  0  0  0  0
    3.6500   -0.0200    0.0000 C   0  0  0  0  0  0  0  0  0  0  0  0
    4.5300    1.1900    0.0000 C   0  0  0  0  0  0  0  0  0  0  0  0
    3.6500    2.4000    0.0000 C   0  0  1  0  0  0  0  0  0  0  0  0
    4.9495    3.1491    0.0000 C   0  0  0  0  0  0  0  0  0  0  0  0
    3.2897    3.8561    0.0000 O   0  0  0  0  0  0  0  0  0  0  0  0
    1.1664    4.3148    0.0000 O   0  0  0  0  0  0  0  0  0  0  0  0
  2  1  1  1  0  0  0
  2  3  1  0  0  0  0
  3  4  1  0  0  0  0
  4  5  1  0  0  0  0
  5  6  2  0  0  0  0
  5  7  1  0  0  0  0
  7  8  1  0  0  0  0
  7  9  2  0  0  0  0
  2  9  1  0  0  0  0
  9 10  1  0  0  0  0
 10 11  1  0  0  0  0
 12 11  1  6  0  0  0
 12 13  1  0  0  0  0
  2 13  1  0  0  0  0
 13 14  1  1  0  0  0
 14 15  1  0  0  0  0
 15 16  1  0  0  0  0
 16 17  1  1  0  0  0
 16 18  1  0  0  0  0
 12 18  1  0  0  0  0
 18 19  1  1  0  0  0
 19 20  1  0  0  0  0
 20 21  1  0  0  0  0
 16 21  1  0  0  0  0
 21 22  1  6  0  0  0
 21 23  1  1  0  0  0
 24 17  1  0  0  0  0
M  END
> <InChI>
InChI=1S/C20H29ClO3/c1-18-8-7-16(23)17(21)15(18)4-3-12-13(18)6-10-20(11-22)14(12)5-9-19(20,2)24/h12-14,22,24H,3-11H2,1-2H3/t12-,13+,14+,18-,19+,20-/m1/s1

> <InChIKey>
KOIHBNYHYNBLJZ-NTSZXJHNSA-N

> <SMILES>
C[C@]12CCC(=O)C(Cl)=C1CC[C@@H]3[C@@H]2CC[C@@]4(CO)[C@H]3CC[C@]4(C)O

> <Synonyms>


> <PUBCHEM_CID>


> <Molecular_formula>
C20H29ClO3

> <Major_Isotope_Mass>
352.180522468

> <ALogP>
2.8162999999999982

> <Lipinski_Violations>
0

> <Insecticide_Likeness_Violations>
0

> <Post_Em_Herbicide_Likeness_Violations>
0

> <Metabolite_ID>
BTM00009

> <Reaction>
Hydroxylation of methyl carbon adjacent to aliphatic ring

> <Reaction_ID>
BTMR0054

> <Enzyme(s)>
CYP2B6
CYP2C8
CYP2C9
CYP2C19
CYP2D6
CYP3A4

> <Biosystem>
HUMAN

> <Precursor_ID>


> <Precursor_SMILES>
C[C@]12CCC(=O)C(Cl)=C1CC[C@@H]3[C@@H]2CC[C@@]4(C)[C@H]3CC[C@]4(C)O

> <Precursor_InChI>
InChI=1S/C20H29ClO2/c1-18-9-8-16(22)17(21)15(18)5-4-12-13(18)6-10-19(2)14(12)7-11-20(19,3)23/h12-14,23H,4-11H2,1-3H3/t12-,13+,14+,18-,19+,20+/m1/s1

> <Precursor_InChIKey>
SOMOGWLYTLQJGT-XMUHMHRVSA-N

> <Precursor_ALogP>


> <Precursor_Major_Isotope_Mass>
336.1856

$$$$
