BTM00001
  CDK     09122622092D

 23 26  0  0  1  0  0  0  0  0999 V2000
    6.2491    3.8983    0.0000 C   0  0  0  0  0  0  0  0  0  0  0  0
    4.9495    3.1491    0.0000 C   0  0  0  0  0  0  0  0  0  0  0  0
    3.6500    2.4000    0.0000 C   0  0  2  0  0  0  0  0  0  0  0  0
    3.2897    3.8561    0.0000 O   0  0  0  0  0  0  0  0  0  0  0  0
    4.5300    1.1900    0.0000 C   0  0  0  0  0  0  0  0  0  0  0  0
    3.6500   -0.0200    0.0000 C   0  0  0  0  0  0  0  0  0  0  0  0
    2.2200    0.4400    0.0000 C   0  0  1  0  0  0  0  0  0  0  0  0
    0.9200   -0.3100    0.0000 C   0  0  2  0  0  0  0  0  0  0  0  0
    0.9200   -1.8100    0.0000 C   0  0  0  0  0  0  0  0  0  0  0  0
   -0.3800   -2.5600    0.0000 C   0  0  0  0  0  0  0  0  0  0  0  0
   -1.6800   -1.8100    0.0000 C   0  0  0  0  0  0  0  0  0  0  0  0
   -2.9800   -2.5600    0.0000 C   0  0  0  0  0  0  0  0  0  0  0  0
   -4.2800   -1.8100    0.0000 C   0  0  0  0  0  0  0  0  0  0  0  0
   -5.5789   -2.5602    0.0000 O   0  0  0  0  0  0  0  0  0  0  0  0
   -4.2800   -0.3100    0.0000 C   0  0  0  0  0  0  0  0  0  0  0  0
   -2.9800    0.4400    0.0000 C   0  0  0  0  0  0  0  0  0  0  0  0
   -1.6800   -0.3100    0.0000 C   0  0  0  0  0  0  0  0  0  0  0  0
   -0.3800    0.4400    0.0000 C   0  0  0  0  0  0  0  0  0  0  0  0
   -0.3800    1.9400    0.0000 C   0  0  0  0  0  0  0  0  0  0  0  0
    0.9200    2.6900    0.0000 C   0  0  0  0  0  0  0  0  0  0  0  0
    2.2200    1.9400    0.0000 C   0  0  2  0  0  0  0  0  0  0  0  0
    2.3787    3.4316    0.0000 C   0  0  0  0  0  0  0  0  0  0  0  0
    1.1664    4.3148    0.0000 C   0  0  0  0  0  0  0  0  0  0  0  0
  1  2  3  0  0  0  0
  3  2  1  6  0  0  0
  3  4  1  1  0  0  0
  3  5  1  0  0  0  0
  5  6  1  0  0  0  0
  7  6  1  1  0  0  0
  7  8  1  0  0  0  0
  8  9  1  6  0  0  0
  9 10  1  0  0  0  0
 10 11  1  0  0  0  0
 11 12  2  0  0  0  0
 12 13  1  0  0  0  0
 13 14  1  0  0  0  0
 13 15  1  0  0  0  0
 15 16  1  0  0  0  0
 16 17  1  0  0  0  0
 11 17  1  0  0  0  0
 17 18  2  0  0  0  0
  8 18  1  0  0  0  0
 18 19  1  0  0  0  0
 19 20  2  0  0  0  0
 20 21  1  0  0  0  0
  7 21  1  0  0  0  0
  3 21  1  0  0  0  0
 21 22  1  1  0  0  0
 22 23  1  0  0  0  0
M  END
> <InChI>
InChI=1S/C21H26O2/c1-3-20-11-9-17-16-8-6-15(22)13-14(16)5-7-18(17)19(20)10-12-21(20,23)4-2/h2,9,11,13,15,18-19,22-23H,3,5-8,10,12H2,1H3/t15?,18-,19+,20+,21+/m1/s1

> <InChIKey>
ZSFQPSKEJKJWNS-OPHMDYFFSA-N

> <SMILES>
C#C[C@]1(O)CC[C@H]2[C@@H]3CCC4=CC(O)CCC4=C3C=C[C@@]21CC

> <Synonyms>


> <PUBCHEM_CID>


> <Molecular_formula>
C21H26O2

> <Major_Isotope_Mass>
310.193280072

> <ALogP>
4.171199999999999

> <Lipinski_Violations>
0

> <Insecticide_Likeness_Violations>
0

> <Post_Em_Herbicide_Likeness_Violations>
0

> <Metabolite_ID>
BTM00001

> <Reaction>
Reduction of carbonyl

> <Reaction_ID>
BTMR0368

> <Enzyme(s)>
EC 1.1.1.184

> <Biosystem>
HUMAN

> <Precursor_ID>


> <Precursor_SMILES>
C#C[C@]1(O)CC[C@H]2[C@@H]3CCC4=CC(=O)CCC4=C3C=C[C@@]21CC

> <Precursor_InChI>
InChI=1S/C21H24O2/c1-3-20-11-9-17-16-8-6-15(22)13-14(16)5-7-18(17)19(20)10-12-21(20,23)4-2/h2,9,11,13,18-19,23H,3,5-8,10,12H2,1H3/t18-,19+,20+,21+/m1/s1

> <Precursor_InChIKey>
BJJXHLWLUDYTGC-ANULTFPQSA-N

> <Precursor_ALogP>


> <Precursor_Major_Isotope_Mass>
308.1776

$$$$
BTM00002
  CDK     09122622092D

 24 27  0  0  1  0  0  0  0  0999 V2000
    6.2491    3.8983    0.0000 C   0  0  0  0  0  0  0  0  0  0  0  0
    4.9495    3.1491    0.0000 C   0  0  0  0  0  0  0  0  0  0  0  0
    3.6500    2.4000    0.0000 C   0  0  2  0  0  0  0  0  0  0  0  0
    3.2897    3.8561    0.0000 O   0  0  0  0  0  0  0  0  0  0  0  0
    4.5300    1.1900    0.0000 C   0  0  0  0  0  0  0  0  0  0  0  0
    3.6500   -0.0200    0.0000 C   0  0  0  0  0  0  0  0  0  0  0  0
    2.2200    0.4400    0.0000 C   0  0  1  0  0  0  0  0  0  0  0  0
    0.9200   -0.3100    0.0000 C   0  0  2  0  0  0  0  0  0  0  0  0
    0.9200   -1.8100    0.0000 C   0  0  0  0  0  0  0  0  0  0  0  0
   -0.3800   -2.5600    0.0000 C   0  0  0  0  0  0  0  0  0  0  0  0
   -1.6800   -1.8100    0.0000 C   0  0  0  0  0  0  0  0  0  0  0  0
   -2.9800   -2.5600    0.0000 C   0  0  0  0  0  0  0  0  0  0  0  0
   -4.2800   -1.8100    0.0000 C   0  0  0  0  0  0  0  0  0  0  0  0
   -5.5789   -2.5602    0.0000 O   0  0  0  0  0  0  0  0  0  0  0  0
   -4.2800   -0.3100    0.0000 C   0  0  0  0  0  0  0  0  0  0  0  0
   -2.9800    0.4400    0.0000 C   0  0  0  0  0  0  0  0  0  0  0  0
   -1.6800   -0.3100    0.0000 C   0  0  0  0  0  0  0  0  0  0  0  0
   -0.3800    0.4400    0.0000 C   0  0  0  0  0  0  0  0  0  0  0  0
   -0.3800    1.9400    0.0000 C   0  0  0  0  0  0  0  0  0  0  0  0
    0.9200    2.6900    0.0000 C   0  0  0  0  0  0  0  0  0  0  0  0
    2.2200    1.9400    0.0000 C   0  0  2  0  0  0  0  0  0  0  0  0
    2.3787    3.4316    0.0000 C   0  0  0  0  0  0  0  0  0  0  0  0
    1.1664    4.3148    0.0000 C   0  0  0  0  0  0  0  0  0  0  0  0
    6.0300    1.1900    0.0000 O   0  0  0  0  0  0  0  0  0  0  0  0
  1  2  3  0  0  0  0
  3  2  1  6  0  0  0
  3  4  1  1  0  0  0
  3  5  1  0  0  0  0
  5  6  1  0  0  0  0
  7  6  1  1  0  0  0
  7  8  1  0  0  0  0
  8  9  1  6  0  0  0
  9 10  1  0  0  0  0
 10 11  1  0  0  0  0
 11 12  2  0  0  0  0
 12 13  1  0  0  0  0
 13 14  2  0  0  0  0
 13 15  1  0  0  0  0
 15 16  1  0  0  0  0
 16 17  1  0  0  0  0
 11 17  1  0  0  0  0
 17 18  2  0  0  0  0
  8 18  1  0  0  0  0
 18 19  1  0  0  0  0
 19 20  2  0  0  0  0
 20 21  1  0  0  0  0
  7 21  1  0  0  0  0
  3 21  1  0  0  0  0
 21 22  1  1  0  0  0
 22 23  1  0  0  0  0
 24  5  1  0  0  0  0
M  END
> <InChI>
InChI=1S/C21H24O3/c1-3-20-10-9-16-15-8-6-14(22)11-13(15)5-7-17(16)18(20)12-19(23)21(20,24)4-2/h2,9-11,17-19,23-24H,3,5-8,12H2,1H3/t17-,18+,19?,20+,21+/m1/s1

> <InChIKey>
YPZCDTGCTVVMEU-UAJAUTABSA-N

> <SMILES>
C#C[C@]1(O)C(C[C@H]2[C@@H]3CCC4=CC(=O)CCC4=C3C=C[C@@]21CC)O

> <Synonyms>


> <PUBCHEM_CID>


> <Molecular_formula>
C21H24O3

> <Major_Isotope_Mass>
324.17254462799997

> <ALogP>
3.1647999999999987

> <Lipinski_Violations>
0

> <Insecticide_Likeness_Violations>
0

> <Post_Em_Herbicide_Likeness_Violations>
0

> <Metabolite_ID>
BTM00002

> <Reaction>
16-Hydroxylation of sterol

> <Reaction_ID>
BTMR0407

> <Enzyme(s)>
CYP1A2
CYP2A6
CYP2B6
CYP2C8
CYP2C9
CYP2C19
CYP2D6
CYP2E1
CYP3A4

> <Biosystem>
HUMAN

> <Precursor_ID>


> <Precursor_SMILES>
C#C[C@]1(O)CC[C@H]2[C@@H]3CCC4=CC(=O)CCC4=C3C=C[C@@]21CC

> <Precursor_InChI>
InChI=1S/C21H24O2/c1-3-20-11-9-17-16-8-6-15(22)13-14(16)5-7-18(17)19(20)10-12-21(20,23)4-2/h2,9,11,13,18-19,23H,3,5-8,10,12H2,1H3/t18-,19+,20+,21+/m1/s1

> <Precursor_InChIKey>
BJJXHLWLUDYTGC-ANULTFPQSA-N

> <Precursor_ALogP>


> <Precursor_Major_Isotope_Mass>
308.1776

$$$$
BTM00003
  CDK     09122622092D

 24 27  0  0  1  0  0  0  0  0999 V2000
    6.2491    3.8983    0.0000 C   0  0  0  0  0  0  0  0  0  0  0  0
    4.9495    3.1491    0.0000 C   0  0  0  0  0  0  0  0  0  0  0  0
    3.6500    2.4000    0.0000 C   0  0  2  0  0  0  0  0  0  0  0  0
    3.2897    3.8561    0.0000 O   0  0  0  0  0  0  0  0  0  0  0  0
    4.5300    1.1900    0.0000 C   0  0  0  0  0  0  0  0  0  0  0  0
    3.6500   -0.0200    0.0000 C   0  0  0  0  0  0  0  0  0  0  0  0
    2.2200    0.4400    0.0000 C   0  0  1  0  0  0  0  0  0  0  0  0
    0.9200   -0.3100    0.0000 C   0  0  2  0  0  0  0  0  0  0  0  0
    0.9200   -1.8100    0.0000 C   0  0  0  0  0  0  0  0  0  0  0  0
   -0.3800   -2.5600    0.0000 C   0  0  0  0  0  0  0  0  0  0  0  0
   -1.6800   -1.8100    0.0000 C   0  0  0  0  0  0  0  0  0  0  0  0
   -2.9800   -2.5600    0.0000 C   0  0  0  0  0  0  0  0  0  0  0  0
   -4.2800   -1.8100    0.0000 C   0  0  0  0  0  0  0  0  0  0  0  0
   -5.5789   -2.5602    0.0000 O   0  0  0  0  0  0  0  0  0  0  0  0
   -4.2800   -0.3100    0.0000 C   0  0  0  0  0  0  0  0  0  0  0  0
   -2.9800    0.4400    0.0000 C   0  0  0  0  0  0  0  0  0  0  0  0
   -1.6800   -0.3100    0.0000 C   0  0  0  0  0  0  0  0  0  0  0  0
   -0.3800    0.4400    0.0000 C   0  0  0  0  0  0  0  0  0  0  0  0
   -0.3800    1.9400    0.0000 C   0  0  0  0  0  0  0  0  0  0  0  0
    0.9200    2.6900    0.0000 C   0  0  0  0  0  0  0  0  0  0  0  0
    2.2200    1.9400    0.0000 C   0  0  2  0  0  0  0  0  0  0  0  0
    2.3787    3.4316    0.0000 C   0  0  0  0  0  0  0  0  0  0  0  0
    1.1664    4.3148    0.0000 C   0  0  0  0  0  0  0  0  0  0  0  0
   -5.5789    0.4402    0.0000 O   0  0  0  0  0  0  0  0  0  0  0  0
  1  2  3  0  0  0  0
  3  2  1  6  0  0  0
  3  4  1  1  0  0  0
  3  5  1  0  0  0  0
  5  6  1  0  0  0  0
  7  6  1  1  0  0  0
  7  8  1  0  0  0  0
  8  9  1  6  0  0  0
  9 10  1  0  0  0  0
 10 11  1  0  0  0  0
 11 12  2  0  0  0  0
 12 13  1  0  0  0  0
 13 14  2  0  0  0  0
 13 15  1  0  0  0  0
 15 16  1  0  0  0  0
 16 17  1  0  0  0  0
 11 17  1  0  0  0  0
 17 18  2  0  0  0  0
  8 18  1  0  0  0  0
 18 19  1  0  0  0  0
 19 20  2  0  0  0  0
 20 21  1  0  0  0  0
  7 21  1  0  0  0  0
  3 21  1  0  0  0  0
 21 22  1  1  0  0  0
 22 23  1  0  0  0  0
 24 15  1  0  0  0  0
M  END
> <InChI>
InChI=1S/C21H24O3/c1-3-20-9-7-14-15(17(20)8-10-21(20,24)4-2)6-5-13-11-18(22)19(23)12-16(13)14/h2,7,9,11,15,17,19,23-24H,3,5-6,8,10,12H2,1H3/t15-,17+,19?,20+,21+/m1/s1

> <InChIKey>
WHIDBUKZRQBMBG-QGBQAGHKSA-N

> <SMILES>
C#C[C@]1(O)CC[C@H]2[C@@H]3CCC4=CC(=O)C(CC4=C3C=C[C@@]21CC)O

> <Synonyms>


> <PUBCHEM_CID>


> <Molecular_formula>
C21H24O3

> <Major_Isotope_Mass>
324.17254462799997

> <ALogP>
3.451199999999999

> <Lipinski_Violations>
0

> <Insecticide_Likeness_Violations>
0

> <Post_Em_Herbicide_Likeness_Violations>
0

> <Metabolite_ID>
BTM00003

> <Reaction>
2-Hydroxylation of sterol

> <Reaction_ID>
BTMR0398

> <Enzyme(s)>
CYP1A2
CYP2C19
CYP3A4

> <Biosystem>
HUMAN

> <Precursor_ID>


> <Precursor_SMILES>
C#C[C@]1(O)CC[C@H]2[C@@H]3CCC4=CC(=O)CCC4=C3C=C[C@@]21CC

> <Precursor_InChI>
InChI=1S/C21H24O2/c1-3-20-11-9-17-16-8-6-15(22)13-14(16)5-7-18(17)19(20)10-12-21(20,23)4-2/h2,9,11,13,18-19,23H,3,5-8,10,12H2,1H3/t18-,19+,20+,21+/m1/s1

> <Precursor_InChIKey>
BJJXHLWLUDYTGC-ANULTFPQSA-N

> <Precursor_ALogP>


> <Precursor_Major_Isotope_Mass>
308.1776

$$$$
BTM00004
  CDK     09122622092D

 24 27  0  0  1  0  0  0  0  0999 V2000
    6.2491    3.8983    0.0000 C   0  0  0  0  0  0  0  0  0  0  0  0
    4.9495    3.1491    0.0000 C   0  0  0  0  0  0  0  0  0  0  0  0
    3.6500    2.4000    0.0000 C   0  0  2  0  0  0  0  0  0  0  0  0
    3.2897    3.8561    0.0000 O   0  0  0  0  0  0  0  0  0  0  0  0
    4.5300    1.1900    0.0000 C   0  0  0  0  0  0  0  0  0  0  0  0
    3.6500   -0.0200    0.0000 C   0  0  0  0  0  0  0  0  0  0  0  0
    2.2200    0.4400    0.0000 C   0  0  1  0  0  0  0  0  0  0  0  0
    0.9200   -0.3100    0.0000 C   0  0  2  0  0  0  0  0  0  0  0  0
    0.9200   -1.8100    0.0000 C   0  0  0  0  0  0  0  0  0  0  0  0
   -0.3800   -2.5600    0.0000 C   0  0  0  0  0  0  0  0  0  0  0  0
   -1.6800   -1.8100    0.0000 C   0  0  0  0  0  0  0  0  0  0  0  0
   -2.9800   -2.5600    0.0000 C   0  0  0  0  0  0  0  0  0  0  0  0
   -4.2800   -1.8100    0.0000 C   0  0  0  0  0  0  0  0  0  0  0  0
   -5.5789   -2.5602    0.0000 O   0  0  0  0  0  0  0  0  0  0  0  0
   -4.2800   -0.3100    0.0000 C   0  0  0  0  0  0  0  0  0  0  0  0
   -2.9800    0.4400    0.0000 C   0  0  0  0  0  0  0  0  0  0  0  0
   -1.6800   -0.3100    0.0000 C   0  0  0  0  0  0  0  0  0  0  0  0
   -0.3800    0.4400    0.0000 C   0  0  0  0  0  0  0  0  0  0  0  0
   -0.3800    1.9400    0.0000 C   0  0  0  0  0  0  0  0  0  0  0  0
    0.9200    2.6900    0.0000 C   0  0  0  0  0  0  0  0  0  0  0  0
    2.2200    1.9400    0.0000 C   0  0  2  0  0  0  0  0  0  0  0  0
    2.3787    3.4316    0.0000 C   0  0  0  0  0  0  0  0  0  0  0  0
    1.1664    4.3148    0.0000 C   0  0  0  0  0  0  0  0  0  0  0  0
   -2.9800   -4.0600    0.0000 O   0  0  0  0  0  0  0  0  0  0  0  0
  1  2  3  0  0  0  0
  3  2  1  6  0  0  0
  3  4  1  1  0  0  0
  3  5  1  0  0  0  0
  5  6  1  0  0  0  0
  7  6  1  1  0  0  0
  7  8  1  0  0  0  0
  8  9  1  6  0  0  0
  9 10  1  0  0  0  0
 10 11  1  0  0  0  0
 11 12  2  0  0  0  0
 12 13  1  0  0  0  0
 13 14  2  0  0  0  0
 13 15  1  0  0  0  0
 15 16  1  0  0  0  0
 16 17  1  0  0  0  0
 11 17  1  0  0  0  0
 17 18  2  0  0  0  0
  8 18  1  0  0  0  0
 18 19  1  0  0  0  0
 19 20  2  0  0  0  0
 20 21  1  0  0  0  0
  7 21  1  0  0  0  0
  3 21  1  0  0  0  0
 21 22  1  1  0  0  0
 22 23  1  0  0  0  0
 24 12  1  0  0  0  0
M  END
> <InChI>
InChI=1S/C21H24O3/c1-3-20-11-9-14-13-7-8-18(22)19(23)16(13)6-5-15(14)17(20)10-12-21(20,24)4-2/h2,9,11,15,17,23-24H,3,5-8,10,12H2,1H3/t15-,17+,20+,21+/m1/s1

> <InChIKey>
KDLNQABIHLRBKU-GWKIZSTFSA-N

> <SMILES>
C#C[C@]1(O)CC[C@H]2[C@@H]3CCC4=C(C(=O)CCC4=C3C=C[C@@]21CC)O

> <Synonyms>


> <PUBCHEM_CID>


> <Molecular_formula>
C21H24O3

> <Major_Isotope_Mass>
324.17254462799997

> <ALogP>
3.5685999999999987

> <Lipinski_Violations>
0

> <Insecticide_Likeness_Violations>
0

> <Post_Em_Herbicide_Likeness_Violations>
0

> <Metabolite_ID>
BTM00004

> <Reaction>
4-Hydroxylation of sterol

> <Reaction_ID>
BTMR0400

> <Enzyme(s)>
CYP1A2
CYP3A4

> <Biosystem>
HUMAN

> <Precursor_ID>


> <Precursor_SMILES>
C#C[C@]1(O)CC[C@H]2[C@@H]3CCC4=CC(=O)CCC4=C3C=C[C@@]21CC

> <Precursor_InChI>
InChI=1S/C21H24O2/c1-3-20-11-9-17-16-8-6-15(22)13-14(16)5-7-18(17)19(20)10-12-21(20,23)4-2/h2,9,11,13,18-19,23H,3,5-8,10,12H2,1H3/t18-,19+,20+,21+/m1/s1

> <Precursor_InChIKey>
BJJXHLWLUDYTGC-ANULTFPQSA-N

> <Precursor_ALogP>


> <Precursor_Major_Isotope_Mass>
308.1776

$$$$
BTM00005
  CDK     09122622092D

 24 27  0  0  1  0  0  0  0  0999 V2000
    5.5124    2.8535    0.0000 C   0  0  0  0  0  0  0  0  0  0  0  0
    4.2125    2.1050    0.0000 C   0  0  0  0  0  0  0  0  0  0  0  0
    2.9126    1.3565    0.0000 C   0  0  2  0  0  0  0  0  0  0  0  0
    2.5481    2.8115    0.0000 O   0  0  0  0  0  0  0  0  0  0  0  0
    3.7926    0.1365    0.0000 C   0  0  0  0  0  0  0  0  0  0  0  0
    2.9126   -1.0735    0.0000 C   0  0  0  0  0  0  0  0  0  0  0  0
    1.4826   -0.6135    0.0000 C   0  0  1  0  0  0  0  0  0  0  0  0
    0.1826   -1.3635    0.0000 C   0  0  2  0  0  0  0  0  0  0  0  0
    0.1826   -2.8635    0.0000 C   0  0  0  0  0  0  0  0  0  0  0  0
   -1.1174   -3.6135    0.0000 C   0  0  0  0  0  0  0  0  0  0  0  0
   -2.4174   -2.8635    0.0000 C   0  0  0  0  0  0  0  0  0  0  0  0
   -3.7174   -3.6135    0.0000 C   0  0  0  0  0  0  0  0  0  0  0  0
   -5.0174   -2.8635    0.0000 C   0  0  0  0  0  0  0  0  0  0  0  0
   -6.3163   -3.6137    0.0000 O   0  0  0  0  0  0  0  0  0  0  0  0
   -5.0174   -1.3635    0.0000 C   0  0  0  0  0  0  0  0  0  0  0  0
   -3.7174   -0.6135    0.0000 C   0  0  0  0  0  0  0  0  0  0  0  0
   -2.4174   -1.3635    0.0000 C   0  0  0  0  0  0  0  0  0  0  0  0
   -1.1174   -0.6135    0.0000 C   0  0  0  0  0  0  0  0  0  0  0  0
   -1.1174    0.8865    0.0000 C   0  0  0  0  0  0  0  0  0  0  0  0
    0.1826    1.6365    0.0000 C   0  0  0  0  0  0  0  0  0  0  0  0
    1.4826    0.8865    0.0000 C   0  0  2  0  0  0  0  0  0  0  0  0
    1.6859    2.8560    0.0000 C   0  0  0  0  0  0  0  0  0  0  0  0
    3.4932    3.6647    0.0000 C   0  0  0  0  0  0  0  0  0  0  0  0
    0.4707    3.7354    0.0000 O   0  0  0  0  0  0  0  0  0  0  0  0
  1  2  3  0  0  0  0
  3  2  1  6  0  0  0
  3  4  1  1  0  0  0
  3  5  1  0  0  0  0
  5  6  1  0  0  0  0
  7  6  1  1  0  0  0
  7  8  1  0  0  0  0
  8  9  1  6  0  0  0
  9 10  1  0  0  0  0
 10 11  1  0  0  0  0
 11 12  2  0  0  0  0
 12 13  1  0  0  0  0
 13 14  2  0  0  0  0
 13 15  1  0  0  0  0
 15 16  1  0  0  0  0
 16 17  1  0  0  0  0
 11 17  1  0  0  0  0
 17 18  2  0  0  0  0
  8 18  1  0  0  0  0
 18 19  1  0  0  0  0
 19 20  2  0  0  0  0
 21 20  1  6  0  0  0
  7 21  1  0  0  0  0
  3 21  1  0  0  0  0
 21 22  1  0  0  0  0
 22 23  1  0  0  0  0
 22 24  1  0  0  0  0
M  END
> <InChI>
InChI=1S/C21H24O3/c1-3-20(24)10-9-19-18-6-4-14-12-15(23)5-7-16(14)17(18)8-11-21(19,20)13(2)22/h1,8,11-13,18-19,22,24H,4-7,9-10H2,2H3/t13?,18-,19+,20+,21-/m1/s1

> <InChIKey>
XVVPAXQOXJUDLM-AWLPRKGPSA-N

> <SMILES>
C#C[C@]1(O)CC[C@H]2[C@@H]3CCC4=CC(=O)CCC4=C3C=C[C@@]21C(C)O

> <Synonyms>


> <PUBCHEM_CID>


> <Molecular_formula>
C21H24O3

> <Major_Isotope_Mass>
324.17254462799997

> <ALogP>
2.9622999999999973

> <Lipinski_Violations>
0

> <Insecticide_Likeness_Violations>
0

> <Post_Em_Herbicide_Likeness_Violations>
0

> <Metabolite_ID>
BTM00005

> <Reaction>
Hydroxylation of penultimate aliphatic secondary carbon

> <Reaction_ID>
BTMR1074

> <Enzyme(s)>
CYP1A2
CYP2A6
CYP2B6
CYP2C8
CYP2C9
CYP2C19
CYP2D6
CYP2E1
CYP3A4

> <Biosystem>
HUMAN

> <Precursor_ID>


> <Precursor_SMILES>
C#C[C@]1(O)CC[C@H]2[C@@H]3CCC4=CC(=O)CCC4=C3C=C[C@@]21CC

> <Precursor_InChI>
InChI=1S/C21H24O2/c1-3-20-11-9-17-16-8-6-15(22)13-14(16)5-7-18(17)19(20)10-12-21(20,23)4-2/h2,9,11,13,18-19,23H,3,5-8,10,12H2,1H3/t18-,19+,20+,21+/m1/s1

> <Precursor_InChIKey>
BJJXHLWLUDYTGC-ANULTFPQSA-N

> <Precursor_ALogP>


> <Precursor_Major_Isotope_Mass>
308.1776

$$$$
BTM00006
  CDK     09122622092D

 24 28  0  0  1  0  0  0  0  0999 V2000
    4.0247    3.4635    0.0000 C   0  0  0  0  0  0  0  0  0  0  0  0
    2.7256    2.7135    0.0000 C   0  0  0  0  0  0  0  0  0  0  0  0
    1.4266    1.9635    0.0000 C   0  0  2  0  0  0  0  0  0  0  0  0
    1.0637    3.4190    0.0000 O   0  0  0  0  0  0  0  0  0  0  0  0
    2.3083    0.7500    0.0000 C   0  0  0  0  0  0  0  0  0  0  0  0
    1.4266   -0.4635    0.0000 C   0  0  0  0  0  0  0  0  0  0  0  0
   -0.0000   -0.0000    0.0000 C   0  0  1  0  0  0  0  0  0  0  0  0
   -1.2990   -0.7500    0.0000 C   0  0  2  0  0  0  0  0  0  0  0  0
   -1.2990   -2.2500    0.0000 C   0  0  0  0  0  0  0  0  0  0  0  0
   -2.5981   -3.0000    0.0000 C   0  0  0  0  0  0  0  0  0  0  0  0
   -3.8971   -2.2500    0.0000 C   0  0  0  0  0  0  0  0  0  0  0  0
   -5.1962   -3.0000    0.0000 C   0  0  0  0  0  0  0  0  0  0  0  0
   -6.4952   -2.2500    0.0000 C   0  0  0  0  0  0  0  0  0  0  0  0
   -7.7942   -3.0000    0.0000 O   0  0  0  0  0  0  0  0  0  0  0  0
   -6.4952   -0.7500    0.0000 C   0  0  0  0  0  0  0  0  0  0  0  0
   -5.1962    0.0000    0.0000 C   0  0  0  0  0  0  0  0  0  0  0  0
   -3.8971   -0.7500    0.0000 C   0  0  0  0  0  0  0  0  0  0  0  0
   -2.5981   -0.0000    0.0000 C   0  0  0  0  0  0  0  0  0  0  0  0
   -2.5981    1.5000    0.0000 C   0  0  0  0  0  0  0  0  0  0  0  0
   -1.2990    2.2500    0.0000 C   0  0  0  0  0  0  0  0  0  0  0  0
    0.0000    1.5000    0.0000 C   0  0  2  0  0  0  0  0  0  0  0  0
    0.1568    2.9918    0.0000 C   0  0  0  0  0  0  0  0  0  0  0  0
   -1.0567    3.8735    0.0000 C   0  0  0  0  0  0  0  0  0  0  0  0
   -2.5981    3.0000    0.0000 O   0  0  0  0  0  0  0  0  0  0  0  0
  1  2  3  0  0  0  0
  3  2  1  6  0  0  0
  3  4  1  1  0  0  0
  3  5  1  0  0  0  0
  5  6  1  0  0  0  0
  7  6  1  1  0  0  0
  7  8  1  0  0  0  0
  8  9  1  6  0  0  0
  9 10  1  0  0  0  0
 10 11  1  0  0  0  0
 11 12  2  0  0  0  0
 12 13  1  0  0  0  0
 13 14  2  0  0  0  0
 13 15  1  0  0  0  0
 15 16  1  0  0  0  0
 16 17  1  0  0  0  0
 11 17  1  0  0  0  0
 17 18  2  0  0  0  0
  8 18  1  0  0  0  0
 18 19  1  0  0  0  0
 19 20  1  0  0  0  0
 20 21  1  0  0  0  0
  7 21  1  0  0  0  0
  3 21  1  0  0  0  0
 21 22  1  1  0  0  0
 22 23  1  0  0  0  0
 20 24  1  0  0  0  0
 24 19  1  0  0  0  0
M  END
> <InChI>
InChI=1S/C21H24O3/c1-3-20(23)10-9-16-15-7-5-12-11-13(22)6-8-14(12)17(15)18-19(24-18)21(16,20)4-2/h1,11,15-16,18-19,23H,4-10H2,2H3/t15-,16-,18?,19?,20-,21+/m0/s1

> <InChIKey>
IIEUOEATMAHIDB-PRQWCCNFSA-N

> <SMILES>
C#C[C@]1(O)CC[C@H]2[C@@H]3CCC4=CC(=O)CCC4=C3C5C([C@@]21CC)O5

> <Synonyms>


> <PUBCHEM_CID>


> <Molecular_formula>
C21H24O3

> <Major_Isotope_Mass>
324.17254462799997

> <ALogP>
3.4089999999999976

> <Lipinski_Violations>
0

> <Insecticide_Likeness_Violations>
0

> <Post_Em_Herbicide_Likeness_Violations>
0

> <Metabolite_ID>
BTM00006

> <Reaction>
Epoxidation of alkene

> <Reaction_ID>
BTMR0110

> <Enzyme(s)>
CYP1A2
CYP2B6
CYP2B6
CYP2C8
CYP2C9
CYP2C19
CYP2D6
CYP2E1
CYP3A4

> <Biosystem>
HUMAN

> <Precursor_ID>


> <Precursor_SMILES>
C#C[C@]1(O)CC[C@H]2[C@@H]3CCC4=CC(=O)CCC4=C3C=C[C@@]21CC

> <Precursor_InChI>
InChI=1S/C21H24O2/c1-3-20-11-9-17-16-8-6-15(22)13-14(16)5-7-18(17)19(20)10-12-21(20,23)4-2/h2,9,11,13,18-19,23H,3,5-8,10,12H2,1H3/t18-,19+,20+,21+/m1/s1

> <Precursor_InChIKey>
BJJXHLWLUDYTGC-ANULTFPQSA-N

> <Precursor_ALogP>


> <Precursor_Major_Isotope_Mass>
308.1776

$$$$
BTM00007
  CDK     09122622092D

 24 27  0  0  1  0  0  0  0  0999 V2000
    5.9998    3.5270    0.0000 C   0  0  0  0  0  0  0  0  0  0  0  0
    4.6999    2.7785    0.0000 C   0  0  0  0  0  0  0  0  0  0  0  0
    3.4000    2.0300    0.0000 C   0  0  2  0  0  0  0  0  0  0  0  0
    3.0355    3.4850    0.0000 O   0  0  0  0  0  0  0  0  0  0  0  0
    4.2800    0.8100    0.0000 C   0  0  0  0  0  0  0  0  0  0  0  0
    3.4000   -0.4000    0.0000 C   0  0  0  0  0  0  0  0  0  0  0  0
    1.9700    0.0600    0.0000 C   0  0  1  0  0  0  0  0  0  0  0  0
    0.6700   -0.6900    0.0000 C   0  0  2  0  0  0  0  0  0  0  0  0
    0.6700   -2.1900    0.0000 C   0  0  0  0  0  0  0  0  0  0  0  0
   -0.6300   -2.9400    0.0000 C   0  0  0  0  0  0  0  0  0  0  0  0
   -1.9300   -2.1900    0.0000 C   0  0  0  0  0  0  0  0  0  0  0  0
   -3.2300   -2.9400    0.0000 C   0  0  0  0  0  0  0  0  0  0  0  0
   -4.5300   -2.1900    0.0000 C   0  0  0  0  0  0  0  0  0  0  0  0
   -5.8289   -2.9402    0.0000 O   0  0  0  0  0  0  0  0  0  0  0  0
   -4.5300   -0.6900    0.0000 C   0  0  0  0  0  0  0  0  0  0  0  0
   -3.2300    0.0600    0.0000 C   0  0  0  0  0  0  0  0  0  0  0  0
   -1.9300   -0.6900    0.0000 C   0  0  0  0  0  0  0  0  0  0  0  0
   -0.6300    0.0600    0.0000 C   0  0  0  0  0  0  0  0  0  0  0  0
   -0.6300    1.5600    0.0000 C   0  0  0  0  0  0  0  0  0  0  0  0
    0.6700    2.3100    0.0000 C   0  0  0  0  0  0  0  0  0  0  0  0
    1.9700    1.5600    0.0000 C   0  0  2  0  0  0  0  0  0  0  0  0
    2.1240    3.0521    0.0000 C   0  0  0  0  0  0  0  0  0  0  0  0
    0.9089    3.9315    0.0000 C   0  0  0  0  0  0  0  0  0  0  0  0
    1.0629    5.4236    0.0000 O   0  0  0  0  0  0  0  0  0  0  0  0
  1  2  3  0  0  0  0
  3  2  1  6  0  0  0
  3  4  1  1  0  0  0
  3  5  1  0  0  0  0
  5  6  1  0  0  0  0
  7  6  1  1  0  0  0
  7  8  1  0  0  0  0
  8  9  1  6  0  0  0
  9 10  1  0  0  0  0
 10 11  1  0  0  0  0
 11 12  2  0  0  0  0
 12 13  1  0  0  0  0
 13 14  2  0  0  0  0
 13 15  1  0  0  0  0
 15 16  1  0  0  0  0
 16 17  1  0  0  0  0
 11 17  1  0  0  0  0
 17 18  2  0  0  0  0
  8 18  1  0  0  0  0
 18 19  1  0  0  0  0
 19 20  2  0  0  0  0
 20 21  1  0  0  0  0
  7 21  1  0  0  0  0
  3 21  1  0  0  0  0
 21 22  1  1  0  0  0
 22 23  1  0  0  0  0
 24 23  1  0  0  0  0
M  END
> <InChI>
InChI=1S/C21H24O3/c1-2-21(24)10-8-19-18-5-3-14-13-15(23)4-6-16(14)17(18)7-9-20(19,21)11-12-22/h1,7,9,13,18-19,22,24H,3-6,8,10-12H2/t18-,19+,20-,21+/m1/s1

> <InChIKey>
CENVBYYQABVJSV-MHTWAQMVSA-N

> <SMILES>
C#C[C@]1(O)CC[C@H]2[C@@H]3CCC4=CC(=O)CCC4=C3C=C[C@@]21CCO

> <Synonyms>


> <PUBCHEM_CID>


> <Molecular_formula>
C21H24O3

> <Major_Isotope_Mass>
324.17254462799997

> <ALogP>
2.905999999999998

> <Lipinski_Violations>
0

> <Insecticide_Likeness_Violations>
0

> <Post_Em_Herbicide_Likeness_Violations>
0

> <Metabolite_ID>
BTM00007

> <Reaction>
Hydroxylation of terminal methyl

> <Reaction_ID>
BTMR1061

> <Enzyme(s)>
CYP1A2
CYP2A6
CYP2B6
CYP2C8
CYP2C9
CYP2C19
CYP2D6
CYP2E1
CYP3A4

> <Biosystem>
HUMAN

> <Precursor_ID>


> <Precursor_SMILES>
C#C[C@]1(O)CC[C@H]2[C@@H]3CCC4=CC(=O)CCC4=C3C=C[C@@]21CC

> <Precursor_InChI>
InChI=1S/C21H24O2/c1-3-20-11-9-17-16-8-6-15(22)13-14(16)5-7-18(17)19(20)10-12-21(20,23)4-2/h2,9,11,13,18-19,23H,3,5-8,10,12H2,1H3/t18-,19+,20+,21+/m1/s1

> <Precursor_InChIKey>
BJJXHLWLUDYTGC-ANULTFPQSA-N

> <Precursor_ALogP>


> <Precursor_Major_Isotope_Mass>
308.1776

$$$$
BTM00008
  CDK     09122622092D

 23 26  0  0  1  0  0  0  0  0999 V2000
    6.2491    3.8983    0.0000 C   0  0  0  0  0  0  0  0  0  0  0  0
    4.9495    3.1491    0.0000 C   0  0  0  0  0  0  0  0  0  0  0  0
    3.6500    2.4000    0.0000 C   0  0  2  0  0  0  0  0  0  0  0  0
    3.2897    3.8561    0.0000 O   0  0  0  0  0  0  0  0  0  0  0  0
    4.5300    1.1900    0.0000 C   0  0  0  0  0  0  0  0  0  0  0  0
    3.6500   -0.0200    0.0000 C   0  0  0  0  0  0  0  0  0  0  0  0
    2.2200    0.4400    0.0000 C   0  0  1  0  0  0  0  0  0  0  0  0
    0.9200   -0.3100    0.0000 C   0  0  2  0  0  0  0  0  0  0  0  0
    0.9200   -1.8100    0.0000 C   0  0  0  0  0  0  0  0  0  0  0  0
   -0.3800   -2.5600    0.0000 C   0  0  0  0  0  0  0  0  0  0  0  0
   -1.6800   -1.8100    0.0000 C   0  0  0  0  0  0  0  0  0  0  0  0
   -2.9800   -2.5600    0.0000 C   0  0  0  0  0  0  0  0  0  0  0  0
   -4.2800   -1.8100    0.0000 C   0  0  0  0  0  0  0  0  0  0  0  0
   -5.5789   -2.5602    0.0000 O   0  0  0  0  0  0  0  0  0  0  0  0
   -4.2800   -0.3100    0.0000 C   0  0  0  0  0  0  0  0  0  0  0  0
   -2.9800    0.4400    0.0000 C   0  0  0  0  0  0  0  0  0  0  0  0
   -1.6800   -0.3100    0.0000 C   0  0  0  0  0  0  0  0  0  0  0  0
   -0.3800    0.4400    0.0000 C   0  0  0  0  0  0  0  0  0  0  0  0
   -0.3800    1.9400    0.0000 C   0  0  0  0  0  0  0  0  0  0  0  0
    0.9200    2.6900    0.0000 C   0  0  0  0  0  0  0  0  0  0  0  0
    2.2200    1.9400    0.0000 C   0  0  2  0  0  0  0  0  0  0  0  0
    2.3787    3.4316    0.0000 C   0  0  0  0  0  0  0  0  0  0  0  0
    1.1664    4.3148    0.0000 C   0  0  0  0  0  0  0  0  0  0  0  0
  1  2  3  0  0  0  0
  3  2  1  6  0  0  0
  3  4  1  1  0  0  0
  3  5  1  0  0  0  0
  5  6  1  0  0  0  0
  7  6  1  1  0  0  0
  7  8  1  0  0  0  0
  8  9  1  6  0  0  0
  9 10  1  0  0  0  0
 10 11  1  0  0  0  0
 11 12  2  0  0  0  0
 12 13  1  0  0  0  0
 13 14  2  0  0  0  0
 13 15  1  0  0  0  0
 15 16  1  0  0  0  0
 16 17  1  0  0  0  0
 11 17  1  0  0  0  0
 17 18  2  0  0  0  0
  8 18  1  0  0  0  0
 18 19  1  0  0  0  0
 19 20  2  0  0  0  0
 20 21  1  0  0  0  0
  7 21  1  0  0  0  0
  3 21  1  0  0  0  0
 21 22  1  1  0  0  0
 22 23  2  0  0  0  0
M  END
> <InChI>
InChI=1S/C21H22O2/c1-3-20-11-9-17-16-8-6-15(22)13-14(16)5-7-18(17)19(20)10-12-21(20,23)4-2/h2-3,9,11,13,18-19,23H,1,5-8,10,12H2/t18-,19+,20+,21+/m1/s1

> <InChIKey>
FIICOGKUYDZEDA-ANULTFPQSA-N

> <SMILES>
C#C[C@]1(O)CC[C@H]2[C@@H]3CCC4=CC(=O)CCC4=C3C=C[C@@]21C=C

> <Synonyms>


> <PUBCHEM_CID>


> <Molecular_formula>
C21H22O2

> <Major_Isotope_Mass>
306.161979944

> <ALogP>
3.7409999999999988

> <Lipinski_Violations>
0

> <Insecticide_Likeness_Violations>
0

> <Post_Em_Herbicide_Likeness_Violations>
0

> <Metabolite_ID>
BTM00008

> <Reaction>
Terminal desaturation

> <Reaction_ID>
BTMR1190

> <Enzyme(s)>
CYP1A2
CYP2A6
CYP2C9
CYP2D6
CYP3A4

> <Biosystem>
HUMAN

> <Precursor_ID>


> <Precursor_SMILES>
C#C[C@]1(O)CC[C@H]2[C@@H]3CCC4=CC(=O)CCC4=C3C=C[C@@]21CC

> <Precursor_InChI>
InChI=1S/C21H24O2/c1-3-20-11-9-17-16-8-6-15(22)13-14(16)5-7-18(17)19(20)10-12-21(20,23)4-2/h2,9,11,13,18-19,23H,3,5-8,10,12H2,1H3/t18-,19+,20+,21+/m1/s1

> <Precursor_InChIKey>
BJJXHLWLUDYTGC-ANULTFPQSA-N

> <Precursor_ALogP>


> <Precursor_Major_Isotope_Mass>
308.1776

$$$$
BTM00009
  CDK     09122622092D

 24 27  0  0  1  0  0  0  0  0999 V2000
    6.2491    3.8983    0.0000 C   0  0  0  0  0  0  0  0  0  0  0  0
    4.9495    3.1491    0.0000 C   0  0  0  0  0  0  0  0  0  0  0  0
    3.6500    2.4000    0.0000 C   0  0  2  0  0  0  0  0  0  0  0  0
    3.2897    3.8561    0.0000 O   0  0  0  0  0  0  0  0  0  0  0  0
    4.5300    1.1900    0.0000 C   0  0  0  0  0  0  0  0  0  0  0  0
    3.6500   -0.0200    0.0000 C   0  0  0  0  0  0  0  0  0  0  0  0
    2.2200    0.4400    0.0000 C   0  0  1  0  0  0  0  0  0  0  0  0
    0.9200   -0.3100    0.0000 C   0  0  2  0  0  0  0  0  0  0  0  0
    0.9200   -1.8100    0.0000 C   0  0  0  0  0  0  0  0  0  0  0  0
   -0.3800   -2.5600    0.0000 C   0  0  0  0  0  0  0  0  0  0  0  0
   -1.6800   -1.8100    0.0000 C   0  0  0  0  0  0  0  0  0  0  0  0
   -2.9800   -2.5600    0.0000 C   0  0  0  0  0  0  0  0  0  0  0  0
   -4.2800   -1.8100    0.0000 C   0  0  0  0  0  0  0  0  0  0  0  0
   -5.5789   -2.5602    0.0000 O   0  0  0  0  0  0  0  0  0  0  0  0
   -4.2800   -0.3100    0.0000 C   0  0  0  0  0  0  0  0  0  0  0  0
   -2.9800    0.4400    0.0000 C   0  0  0  0  0  0  0  0  0  0  0  0
   -1.6800   -0.3100    0.0000 C   0  0  0  0  0  0  0  0  0  0  0  0
   -0.3800    0.4400    0.0000 C   0  0  0  0  0  0  0  0  0  0  0  0
   -0.3800    1.9400    0.0000 C   0  0  0  0  0  0  0  0  0  0  0  0
    0.9200    2.6900    0.0000 C   0  0  0  0  0  0  0  0  0  0  0  0
    2.2200    1.9400    0.0000 C   0  0  2  0  0  0  0  0  0  0  0  0
    2.3787    3.4316    0.0000 C   0  0  0  0  0  0  0  0  0  0  0  0
    1.1664    4.3148    0.0000 C   0  0  0  0  0  0  0  0  0  0  0  0
   -0.3800   -4.0600    0.0000 O   0  0  0  0  0  0  0  0  0  0  0  0
  1  2  3  0  0  0  0
  3  2  1  6  0  0  0
  3  4  1  1  0  0  0
  3  5  1  0  0  0  0
  5  6  1  0  0  0  0
  7  6  1  1  0  0  0
  7  8  1  0  0  0  0
  8  9  1  6  0  0  0
  9 10  1  0  0  0  0
 10 11  1  0  0  0  0
 11 12  2  0  0  0  0
 12 13  1  0  0  0  0
 13 14  2  0  0  0  0
 13 15  1  0  0  0  0
 15 16  1  0  0  0  0
 16 17  1  0  0  0  0
 11 17  1  0  0  0  0
 17 18  2  0  0  0  0
  8 18  1  0  0  0  0
 18 19  1  0  0  0  0
 19 20  2  0  0  0  0
 20 21  1  0  0  0  0
  7 21  1  0  0  0  0
  3 21  1  0  0  0  0
 21 22  1  1  0  0  0
 22 23  1  0  0  0  0
 24 10  1  0  0  0  0
M  END
> <InChI>
InChI=1S/C21H24O3/c1-3-20-9-7-15-14-6-5-13(22)11-17(14)19(23)12-16(15)18(20)8-10-21(20,24)4-2/h2,7,9,11,16,18-19,23-24H,3,5-6,8,10,12H2,1H3/t16-,18+,19?,20+,21+/m1/s1

> <InChIKey>
KQUWZIRAKHNAAC-CVEUDUBKSA-N

> <SMILES>
C#C[C@]1(O)CC[C@H]2[C@@H]3CC(C4=CC(=O)CCC4=C3C=C[C@@]21CC)O

> <Synonyms>


> <PUBCHEM_CID>


> <Molecular_formula>
C21H24O3

> <Major_Isotope_Mass>
324.17254462799997

> <ALogP>
3.029799999999997

> <Lipinski_Violations>
0

> <Insecticide_Likeness_Violations>
0

> <Post_Em_Herbicide_Likeness_Violations>
0

> <Metabolite_ID>
BTM00009

> <Reaction>
6-Hydroxylation of sterol

> <Reaction_ID>
BTMR0402

> <Enzyme(s)>
CYP2A6
CYP2B6
CYP2C8
CYP2C9
CYP2C19
CYP2D6
CYP3A4

> <Biosystem>
HUMAN

> <Precursor_ID>


> <Precursor_SMILES>
C#C[C@]1(O)CC[C@H]2[C@@H]3CCC4=CC(=O)CCC4=C3C=C[C@@]21CC

> <Precursor_InChI>
InChI=1S/C21H24O2/c1-3-20-11-9-17-16-8-6-15(22)13-14(16)5-7-18(17)19(20)10-12-21(20,23)4-2/h2,9,11,13,18-19,23H,3,5-8,10,12H2,1H3/t18-,19+,20+,21+/m1/s1

> <Precursor_InChIKey>
BJJXHLWLUDYTGC-ANULTFPQSA-N

> <Precursor_ALogP>


> <Precursor_Major_Isotope_Mass>
308.1776

$$$$
BTM00010
  CDK     09122622092D

 23 26  0  0  1  0  0  0  0  0999 V2000
    6.2491    3.8983    0.0000 C   0  0  0  0  0  0  0  0  0  0  0  0
    4.9495    3.1491    0.0000 C   0  0  0  0  0  0  0  0  0  0  0  0
    3.6500    2.4000    0.0000 C   0  0  2  0  0  0  0  0  0  0  0  0
    3.2897    3.8561    0.0000 O   0  0  0  0  0  0  0  0  0  0  0  0
    4.5300    1.1900    0.0000 C   0  0  0  0  0  0  0  0  0  0  0  0
    3.6500   -0.0200    0.0000 C   0  0  0  0  0  0  0  0  0  0  0  0
    2.2200    0.4400    0.0000 C   0  0  1  0  0  0  0  0  0  0  0  0
    0.9200   -0.3100    0.0000 C   0  0  2  0  0  0  0  0  0  0  0  0
    0.9200   -1.8100    0.0000 C   0  0  0  0  0  0  0  0  0  0  0  0
   -0.3800   -2.5600    0.0000 C   0  0  0  0  0  0  0  0  0  0  0  0
   -1.6800   -1.8100    0.0000 C   0  0  0  0  0  0  0  0  0  0  0  0
   -2.9800   -2.5600    0.0000 C   0  0  0  0  0  0  0  0  0  0  0  0
   -4.2800   -1.8100    0.0000 C   0  0  0  0  0  0  0  0  0  0  0  0
   -5.5789   -2.5602    0.0000 O   0  0  0  0  0  0  0  0  0  0  0  0
   -4.2800   -0.3100    0.0000 C   0  0  0  0  0  0  0  0  0  0  0  0
   -2.9800    0.4400    0.0000 C   0  0  0  0  0  0  0  0  0  0  0  0
   -1.6800   -0.3100    0.0000 C   0  0  0  0  0  0  0  0  0  0  0  0
   -0.3800    0.4400    0.0000 C   0  0  0  0  0  0  0  0  0  0  0  0
   -0.3800    1.9400    0.0000 C   0  0  0  0  0  0  0  0  0  0  0  0
    0.9200    2.6900    0.0000 C   0  0  0  0  0  0  0  0  0  0  0  0
    2.2200    1.9400    0.0000 C   0  0  2  0  0  0  0  0  0  0  0  0
    2.3787    3.4316    0.0000 C   0  0  0  0  0  0  0  0  0  0  0  0
    1.1664    4.3148    0.0000 C   0  0  0  0  0  0  0  0  0  0  0  0
  1  2  3  0  0  0  0
  3  2  1  6  0  0  0
  3  4  1  1  0  0  0
  3  5  1  0  0  0  0
  5  6  1  0  0  0  0
  7  6  1  1  0  0  0
  7  8  1  0  0  0  0
  8  9  1  6  0  0  0
  9 10  1  0  0  0  0
 10 11  1  0  0  0  0
 11 12  1  0  0  0  0
 12 13  1  0  0  0  0
 13 14  2  0  0  0  0
 13 15  1  0  0  0  0
 15 16  1  0  0  0  0
 16 17  1  0  0  0  0
 11 17  1  0  0  0  0
 17 18  2  0  0  0  0
  8 18  1  0  0  0  0
 18 19  1  0  0  0  0
 19 20  2  0  0  0  0
 20 21  1  0  0  0  0
  7 21  1  0  0  0  0
  3 21  1  0  0  0  0
 21 22  1  1  0  0  0
 22 23  1  0  0  0  0
M  END
> <InChI>
InChI=1S/C21H26O2/c1-3-20-11-9-17-16-8-6-15(22)13-14(16)5-7-18(17)19(20)10-12-21(20,23)4-2/h2,9,11,14,18-19,23H,3,5-8,10,12-13H2,1H3/t14?,18-,19+,20+,21+/m1/s1

> <InChIKey>
RBLZMWOWLIGHCD-QMDKRYNSSA-N

> <SMILES>
C#C[C@]1(O)CC[C@H]2[C@@H]3CCC4CC(=O)CCC4=C3C=C[C@@]21CC

> <Synonyms>


> <PUBCHEM_CID>


> <Molecular_formula>
C21H26O2

> <Major_Isotope_Mass>
310.193280072

> <ALogP>
3.9602999999999957

> <Lipinski_Violations>
0

> <Insecticide_Likeness_Violations>
0

> <Post_Em_Herbicide_Likeness_Violations>
0

> <Metabolite_ID>
BTM00010

> <Reaction>
Reduction of alpha,beta-unsaturated carbon-carbon double bond adjacent to electron withdrawing group

> <Reaction_ID>
BTMR1209

> <Enzyme(s)>
EC 1.6.99.1

> <Biosystem>
GUTMICRO

> <Precursor_ID>


> <Precursor_SMILES>
C#C[C@]1(O)CC[C@H]2[C@@H]3CCC4=CC(=O)CCC4=C3C=C[C@@]21CC

> <Precursor_InChI>
InChI=1S/C21H24O2/c1-3-20-11-9-17-16-8-6-15(22)13-14(16)5-7-18(17)19(20)10-12-21(20,23)4-2/h2,9,11,13,18-19,23H,3,5-8,10,12H2,1H3/t18-,19+,20+,21+/m1/s1

> <Precursor_InChIKey>
BJJXHLWLUDYTGC-ANULTFPQSA-N

> <Precursor_ALogP>


> <Precursor_Major_Isotope_Mass>
308.1776

$$$$
