BTM00001
  CDK     09122622092D

 22 25  0  0  1  0  0  0  0  0999 V2000
   -2.9800    1.9400    0.0000 C   0  0  0  0  0  0  0  0  0  0  0  0
   -2.9800    0.4400    0.0000 C   0  0  0  0  0  0  0  0  0  0  0  0
   -4.2800   -0.3100    0.0000 C   0  0  0  0  0  0  0  0  0  0  0  0
   -4.2800   -1.8100    0.0000 C   0  0  0  0  0  0  0  0  0  0  0  0
   -5.5789   -2.5602    0.0000 O   0  0  0  0  0  0  0  0  0  0  0  0
   -2.9800   -2.5600    0.0000 C   0  0  0  0  0  0  0  0  0  0  0  0
   -1.6800   -1.8100    0.0000 C   0  0  2  0  0  0  0  0  0  0  0  0
   -0.3800   -2.5600    0.0000 C   0  0  0  0  0  0  0  0  0  0  0  0
    0.9200   -1.8100    0.0000 C   0  0  0  0  0  0  0  0  0  0  0  0
    0.9200   -0.3100    0.0000 C   0  0  1  0  0  0  0  0  0  0  0  0
    2.2200    0.4400    0.0000 C   0  0  2  0  0  0  0  0  0  0  0  0
    3.6500   -0.0200    0.0000 C   0  0  0  0  0  0  0  0  0  0  0  0
    4.5300    1.1900    0.0000 C   0  0  0  0  0  0  0  0  0  0  0  0
    3.6500    2.4000    0.0000 C   0  0  2  0  0  0  0  0  0  0  0  0
    4.1153    3.8260    0.0000 O   0  0  0  0  0  0  0  0  0  0  0  0
    2.2200    1.9400    0.0000 C   0  0  2  0  0  0  0  0  0  0  0  0
    2.3787    3.4316    0.0000 C   0  0  0  0  0  0  0  0  0  0  0  0
    0.9200    2.6900    0.0000 C   0  0  0  0  0  0  0  0  0  0  0  0
   -0.3800    1.9400    0.0000 C   0  0  0  0  0  0  0  0  0  0  0  0
   -0.3800    0.4400    0.0000 C   0  0  2  0  0  0  0  0  0  0  0  0
   -1.6800   -0.3100    0.0000 C   0  0  1  0  0  0  0  0  0  0  0  0
   -1.6800    1.1900    0.0000 C   0  0  0  0  0  0  0  0  0  0  0  0
  1  2  1  0  0  0  0
  2  3  2  0  0  0  0
  3  4  1  0  0  0  0
  4  5  1  0  0  0  0
  4  6  1  0  0  0  0
  7  6  1  1  0  0  0
  7  8  1  0  0  0  0
  8  9  1  0  0  0  0
 10  9  1  6  0  0  0
 10 11  1  0  0  0  0
 11 12  1  1  0  0  0
 12 13  1  0  0  0  0
 13 14  1  0  0  0  0
 14 15  1  1  0  0  0
 14 16  1  0  0  0  0
 11 16  1  0  0  0  0
 16 17  1  1  0  0  0
 16 18  1  0  0  0  0
 18 19  1  0  0  0  0
 20 19  1  1  0  0  0
 10 20  1  0  0  0  0
 20 21  1  0  0  0  0
  2 21  1  0  0  0  0
  7 21  1  0  0  0  0
 21 22  1  1  0  0  0
M  END
> <InChI>
InChI=1S/C20H32O2/c1-12-10-14(21)11-13-4-5-15-16-6-7-18(22)19(16,2)9-8-17(15)20(12,13)3/h10,13-18,21-22H,4-9,11H2,1-3H3/t13-,14?,15-,16-,17-,18-,19-,20-/m0/s1

> <InChIKey>
XSDSNFOXPIIMBY-PSVOOWSGSA-N

> <SMILES>
CC1=CC(O)C[C@@H]2CC[C@H]3[C@@H]4CC[C@H](O)[C@@]4(C)CC[C@@H]3[C@@]12C

> <Synonyms>


> <PUBCHEM_CID>


> <Molecular_formula>
C20H32O2

> <Major_Isotope_Mass>
304.240230264

> <ALogP>
3.6245999999999983

> <Lipinski_Violations>
0

> <Insecticide_Likeness_Violations>
0

> <Post_Em_Herbicide_Likeness_Violations>
0

> <Metabolite_ID>
BTM00001

> <Reaction>
Reduction of carbonyl

> <Reaction_ID>
BTMR0368

> <Enzyme(s)>
EC 1.1.1.184

> <Biosystem>
HUMAN

> <Precursor_ID>


> <Precursor_SMILES>
CC1=CC(=O)C[C@@H]2CC[C@H]3[C@@H]4CC[C@H](O)[C@@]4(C)CC[C@@H]3[C@@]12C

> <Precursor_InChI>
InChI=1S/C20H30O2/c1-12-10-14(21)11-13-4-5-15-16-6-7-18(22)19(16,2)9-8-17(15)20(12,13)3/h10,13,15-18,22H,4-9,11H2,1-3H3/t13-,15-,16-,17-,18-,19-,20-/m0/s1

> <Precursor_InChIKey>
ANJQEDFWRSLVBR-VHUDCFPWSA-N

> <Precursor_ALogP>


> <Precursor_Major_Isotope_Mass>
302.2245

$$$$
BTM00002
  CDK     09122622092D

 22 25  0  0  1  0  0  0  0  0999 V2000
   -2.9800    1.9400    0.0000 C   0  0  0  0  0  0  0  0  0  0  0  0
   -2.9800    0.4400    0.0000 C   0  0  0  0  0  0  0  0  0  0  0  0
   -4.2800   -0.3100    0.0000 C   0  0  0  0  0  0  0  0  0  0  0  0
   -4.2800   -1.8100    0.0000 C   0  0  0  0  0  0  0  0  0  0  0  0
   -5.5789   -2.5602    0.0000 O   0  0  0  0  0  0  0  0  0  0  0  0
   -2.9800   -2.5600    0.0000 C   0  0  0  0  0  0  0  0  0  0  0  0
   -1.6800   -1.8100    0.0000 C   0  0  2  0  0  0  0  0  0  0  0  0
   -0.3800   -2.5600    0.0000 C   0  0  0  0  0  0  0  0  0  0  0  0
    0.9200   -1.8100    0.0000 C   0  0  0  0  0  0  0  0  0  0  0  0
    0.9200   -0.3100    0.0000 C   0  0  1  0  0  0  0  0  0  0  0  0
    2.2200    0.4400    0.0000 C   0  0  2  0  0  0  0  0  0  0  0  0
    3.6500   -0.0200    0.0000 C   0  0  0  0  0  0  0  0  0  0  0  0
    4.5300    1.1900    0.0000 C   0  0  0  0  0  0  0  0  0  0  0  0
    3.6500    2.4000    0.0000 C   0  0  0  0  0  0  0  0  0  0  0  0
    4.1153    3.8260    0.0000 O   0  0  0  0  0  0  0  0  0  0  0  0
    2.2200    1.9400    0.0000 C   0  0  2  0  0  0  0  0  0  0  0  0
    2.3787    3.4316    0.0000 C   0  0  0  0  0  0  0  0  0  0  0  0
    0.9200    2.6900    0.0000 C   0  0  0  0  0  0  0  0  0  0  0  0
   -0.3800    1.9400    0.0000 C   0  0  0  0  0  0  0  0  0  0  0  0
   -0.3800    0.4400    0.0000 C   0  0  2  0  0  0  0  0  0  0  0  0
   -1.6800   -0.3100    0.0000 C   0  0  1  0  0  0  0  0  0  0  0  0
   -1.6800    1.1900    0.0000 C   0  0  0  0  0  0  0  0  0  0  0  0
  1  2  1  0  0  0  0
  2  3  2  0  0  0  0
  3  4  1  0  0  0  0
  4  5  2  0  0  0  0
  4  6  1  0  0  0  0
  7  6  1  1  0  0  0
  7  8  1  0  0  0  0
  8  9  1  0  0  0  0
 10  9  1  6  0  0  0
 10 11  1  0  0  0  0
 11 12  1  1  0  0  0
 12 13  1  0  0  0  0
 13 14  1  0  0  0  0
 14 15  2  0  0  0  0
 14 16  1  0  0  0  0
 11 16  1  0  0  0  0
 16 17  1  1  0  0  0
 16 18  1  0  0  0  0
 18 19  1  0  0  0  0
 20 19  1  1  0  0  0
 10 20  1  0  0  0  0
 20 21  1  0  0  0  0
  2 21  1  0  0  0  0
  7 21  1  0  0  0  0
 21 22  1  1  0  0  0
M  END
> <InChI>
InChI=1S/C20H28O2/c1-12-10-14(21)11-13-4-5-15-16-6-7-18(22)19(16,2)9-8-17(15)20(12,13)3/h10,13,15-17H,4-9,11H2,1-3H3/t13-,15-,16-,17-,19-,20-/m0/s1

> <InChIKey>
STLDQAJEGPFPIE-SWEGMTMGSA-N

> <SMILES>
CC1=CC(=O)C[C@@H]2CC[C@H]3[C@@H]4CCC(=O)[C@@]4(C)CC[C@@H]3[C@@]12C

> <Synonyms>


> <PUBCHEM_CID>


> <Molecular_formula>
C20H28O2

> <Major_Isotope_Mass>
300.208930136

> <ALogP>
3.545599999999997

> <Lipinski_Violations>
0

> <Insecticide_Likeness_Violations>
0

> <Post_Em_Herbicide_Likeness_Violations>
0

> <Metabolite_ID>
BTM00002

> <Reaction>
Dehydrogenation of 17-beta-hydroxysteroid

> <Reaction_ID>
BTMR0370

> <Enzyme(s)>
EC 1.1.1.239

> <Biosystem>
HUMAN

> <Precursor_ID>


> <Precursor_SMILES>
CC1=CC(=O)C[C@@H]2CC[C@H]3[C@@H]4CC[C@H](O)[C@@]4(C)CC[C@@H]3[C@@]12C

> <Precursor_InChI>
InChI=1S/C20H30O2/c1-12-10-14(21)11-13-4-5-15-16-6-7-18(22)19(16,2)9-8-17(15)20(12,13)3/h10,13,15-18,22H,4-9,11H2,1-3H3/t13-,15-,16-,17-,18-,19-,20-/m0/s1

> <Precursor_InChIKey>
ANJQEDFWRSLVBR-VHUDCFPWSA-N

> <Precursor_ALogP>


> <Precursor_Major_Isotope_Mass>
302.2245

$$$$
BTM00003
  CDK     09122622092D

 23 26  0  0  1  0  0  0  0  0999 V2000
   -2.9800    1.9400    0.0000 C   0  0  0  0  0  0  0  0  0  0  0  0
   -2.9800    0.4400    0.0000 C   0  0  0  0  0  0  0  0  0  0  0  0
   -4.2800   -0.3100    0.0000 C   0  0  0  0  0  0  0  0  0  0  0  0
   -4.2800   -1.8100    0.0000 C   0  0  0  0  0  0  0  0  0  0  0  0
   -5.5789   -2.5602    0.0000 O   0  0  0  0  0  0  0  0  0  0  0  0
   -2.9800   -2.5600    0.0000 C   0  0  0  0  0  0  0  0  0  0  0  0
   -1.6800   -1.8100    0.0000 C   0  0  2  0  0  0  0  0  0  0  0  0
   -0.3800   -2.5600    0.0000 C   0  0  0  0  0  0  0  0  0  0  0  0
    0.9200   -1.8100    0.0000 C   0  0  0  0  0  0  0  0  0  0  0  0
    0.9200   -0.3100    0.0000 C   0  0  1  0  0  0  0  0  0  0  0  0
    2.2200    0.4400    0.0000 C   0  0  2  0  0  0  0  0  0  0  0  0
    3.6500   -0.0200    0.0000 C   0  0  0  0  0  0  0  0  0  0  0  0
    4.5300    1.1900    0.0000 C   0  0  0  0  0  0  0  0  0  0  0  0
    3.6500    2.4000    0.0000 C   0  0  2  0  0  0  0  0  0  0  0  0
    4.1153    3.8260    0.0000 O   0  0  0  0  0  0  0  0  0  0  0  0
    2.2200    1.9400    0.0000 C   0  0  2  0  0  0  0  0  0  0  0  0
    2.3787    3.4316    0.0000 C   0  0  0  0  0  0  0  0  0  0  0  0
    0.9200    2.6900    0.0000 C   0  0  0  0  0  0  0  0  0  0  0  0
   -0.3800    1.9400    0.0000 C   0  0  0  0  0  0  0  0  0  0  0  0
   -0.3800    0.4400    0.0000 C   0  0  2  0  0  0  0  0  0  0  0  0
   -1.6800   -0.3100    0.0000 C   0  0  1  0  0  0  0  0  0  0  0  0
   -1.6800    1.1900    0.0000 C   0  0  0  0  0  0  0  0  0  0  0  0
   -1.6789    2.6902    0.0000 O   0  0  0  0  0  0  0  0  0  0  0  0
  1  2  1  0  0  0  0
  2  3  2  0  0  0  0
  3  4  1  0  0  0  0
  4  5  2  0  0  0  0
  4  6  1  0  0  0  0
  7  6  1  1  0  0  0
  7  8  1  0  0  0  0
  8  9  1  0  0  0  0
 10  9  1  6  0  0  0
 10 11  1  0  0  0  0
 11 12  1  1  0  0  0
 12 13  1  0  0  0  0
 13 14  1  0  0  0  0
 14 15  1  1  0  0  0
 14 16  1  0  0  0  0
 11 16  1  0  0  0  0
 16 17  1  1  0  0  0
 16 18  1  0  0  0  0
 18 19  1  0  0  0  0
 20 19  1  1  0  0  0
 10 20  1  0  0  0  0
 20 21  1  0  0  0  0
  2 21  1  0  0  0  0
  7 21  1  0  0  0  0
 21 22  1  1  0  0  0
 23 19  1  0  0  0  0
M  END
> <InChI>
InChI=1S/C20H30O3/c1-11-8-13(21)9-12-4-5-14-15-6-7-17(23)19(15,2)10-16(22)18(14)20(11,12)3/h8,12,14-18,22-23H,4-7,9-10H2,1-3H3/t12-,14-,15-,16?,17-,18+,19-,20-/m0/s1

> <InChIKey>
BSVVVASFUICFHH-ALHXPUHDSA-N

> <SMILES>
CC1=CC(=O)C[C@@H]2CC[C@H]3[C@@H]4CC[C@H](O)[C@@]4(C)CC([C@@H]3[C@@]12C)O

> <Synonyms>


> <PUBCHEM_CID>


> <Molecular_formula>
C20H30O3

> <Major_Isotope_Mass>
318.21949481999997

> <ALogP>
2.415699999999997

> <Lipinski_Violations>
0

> <Insecticide_Likeness_Violations>
0

> <Post_Em_Herbicide_Likeness_Violations>
0

> <Metabolite_ID>
BTM00003

> <Reaction>
11-beta-Hydroxylation of sterol

> <Reaction_ID>
BTMR0406

> <Enzyme(s)>
EC 1.14.15.4

> <Biosystem>
HUMAN

> <Precursor_ID>


> <Precursor_SMILES>
CC1=CC(=O)C[C@@H]2CC[C@H]3[C@@H]4CC[C@H](O)[C@@]4(C)CC[C@@H]3[C@@]12C

> <Precursor_InChI>
InChI=1S/C20H30O2/c1-12-10-14(21)11-13-4-5-15-16-6-7-18(22)19(16,2)9-8-17(15)20(12,13)3/h10,13,15-18,22H,4-9,11H2,1-3H3/t13-,15-,16-,17-,18-,19-,20-/m0/s1

> <Precursor_InChIKey>
ANJQEDFWRSLVBR-VHUDCFPWSA-N

> <Precursor_ALogP>


> <Precursor_Major_Isotope_Mass>
302.2245

$$$$
BTM00004
  CDK     09122622092D

 34 38  0  0  1  0  0  0  0  0999 V2000
   -2.9800    1.9400    0.0000 C   0  0  0  0  0  0  0  0  0  0  0  0
   -2.9800    0.4400    0.0000 C   0  0  0  0  0  0  0  0  0  0  0  0
   -4.2800   -0.3100    0.0000 C   0  0  0  0  0  0  0  0  0  0  0  0
   -4.2800   -1.8100    0.0000 C   0  0  0  0  0  0  0  0  0  0  0  0
   -5.5789   -2.5602    0.0000 O   0  0  0  0  0  0  0  0  0  0  0  0
   -2.9800   -2.5600    0.0000 C   0  0  0  0  0  0  0  0  0  0  0  0
   -1.6800   -1.8100    0.0000 C   0  0  2  0  0  0  0  0  0  0  0  0
   -0.3800   -2.5600    0.0000 C   0  0  0  0  0  0  0  0  0  0  0  0
    0.9200   -1.8100    0.0000 C   0  0  0  0  0  0  0  0  0  0  0  0
    0.9200   -0.3100    0.0000 C   0  0  1  0  0  0  0  0  0  0  0  0
    2.2200    0.4400    0.0000 C   0  0  2  0  0  0  0  0  0  0  0  0
    3.6500   -0.0200    0.0000 C   0  0  0  0  0  0  0  0  0  0  0  0
    4.5300    1.1900    0.0000 C   0  0  0  0  0  0  0  0  0  0  0  0
    3.6500    2.4000    0.0000 C   0  0  2  0  0  0  0  0  0  0  0  0
    4.1153    3.8260    0.0000 O   0  0  0  0  0  0  0  0  0  0  0  0
    2.2200    1.9400    0.0000 C   0  0  2  0  0  0  0  0  0  0  0  0
    2.3787    3.4316    0.0000 C   0  0  0  0  0  0  0  0  0  0  0  0
    0.9200    2.6900    0.0000 C   0  0  0  0  0  0  0  0  0  0  0  0
   -0.3800    1.9400    0.0000 C   0  0  0  0  0  0  0  0  0  0  0  0
   -0.3800    0.4400    0.0000 C   0  0  2  0  0  0  0  0  0  0  0  0
   -1.6800   -0.3100    0.0000 C   0  0  1  0  0  0  0  0  0  0  0  0
   -1.6800    1.1900    0.0000 C   0  0  0  0  0  0  0  0  0  0  0  0
    5.0521    6.6710    0.0000 O   0  0  0  0  0  0  0  0  0  0  0  0
    6.0499    5.5510    0.0000 C   0  0  0  0  0  0  0  0  0  0  0  0
    7.5416    5.8589    0.0000 C   0  0  0  0  0  0  0  0  0  0  0  0
    8.0166    7.2817    0.0000 O   0  0  0  0  0  0  0  0  0  0  0  0
    8.5379    4.7297    0.0000 C   0  0  0  0  0  0  0  0  0  0  0  0
   10.0074    5.0307    0.0000 O   0  0  0  0  0  0  0  0  0  0  0  0
    8.0708    3.3148    0.0000 C   0  0  0  0  0  0  0  0  0  0  0  0
    6.6013    3.0101    0.0000 O   0  0  0  0  0  0  0  0  0  0  0  0
    5.5829    4.1361    0.0000 C   0  0  0  0  0  0  0  0  0  0  0  0
    9.0691    2.1952    0.0000 C   0  0  0  0  0  0  0  0  0  0  0  0
   10.5378    2.5000    0.0000 O   0  0  0  0  0  0  0  0  0  0  0  0
    8.5987    0.7709    0.0000 O   0  0  0  0  0  0  0  0  0  0  0  0
  1  2  1  0  0  0  0
  2  3  2  0  0  0  0
  3  4  1  0  0  0  0
  4  5  2  0  0  0  0
  4  6  1  0  0  0  0
  7  6  1  1  0  0  0
  7  8  1  0  0  0  0
  8  9  1  0  0  0  0
 10  9  1  6  0  0  0
 10 11  1  0  0  0  0
 11 12  1  1  0  0  0
 12 13  1  0  0  0  0
 13 14  1  0  0  0  0
 14 15  1  1  0  0  0
 14 16  1  0  0  0  0
 11 16  1  0  0  0  0
 16 17  1  1  0  0  0
 16 18  1  0  0  0  0
 18 19  1  0  0  0  0
 20 19  1  1  0  0  0
 10 20  1  0  0  0  0
 20 21  1  0  0  0  0
  2 21  1  0  0  0  0
  7 21  1  0  0  0  0
 21 22  1  1  0  0  0
 23 24  1  0  0  0  0
 24 25  1  0  0  0  0
 25 26  1  0  0  0  0
 25 27  1  0  0  0  0
 27 28  1  0  0  0  0
 27 29  1  0  0  0  0
 29 30  1  0  0  0  0
 30 31  1  0  0  0  0
 24 31  1  0  0  0  0
 31 15  1  0  0  0  0
 29 32  1  0  0  0  0
 32 33  1  0  0  0  0
 32 34  2  0  0  0  0
M  END
> <InChI>
InChI=1S/C26H38O8/c1-12-10-14(27)11-13-4-5-15-16-6-7-18(25(16,2)9-8-17(15)26(12,13)3)33-24-21(30)19(28)20(29)22(34-24)23(31)32/h10,13,15-22,24,28-30H,4-9,11H2,1-3H3,(H,31,32)/t13-,15-,16-,17-,18-,19?,20?,21?,22?,24?,25-,26-/m0/s1

> <InChIKey>
NXOAFJGQSSUAAA-OBXKAOOFSA-N

> <SMILES>
CC1=CC(=O)C[C@@H]2CC[C@H]3[C@@H]4CC[C@H](OC5OC(C(C(C5O)O)O)C(O)=O)[C@@]4(C)CC[C@@H]3[C@@]12C

> <Synonyms>


> <PUBCHEM_CID>


> <Molecular_formula>
C26H38O8

> <Major_Isotope_Mass>
478.25666817599995

> <ALogP>
2.0470999999999973

> <Lipinski_Violations>
0

> <Insecticide_Likeness_Violations>
1

> <Post_Em_Herbicide_Likeness_Violations>
1

> <Metabolite_ID>
BTM00004

> <Reaction>
17-OH-Glucuronidation of sterol

> <Reaction_ID>
BTMR0163

> <Enzyme(s)>
EC 2.4.1.17

> <Biosystem>
HUMAN

> <Precursor_ID>


> <Precursor_SMILES>
CC1=CC(=O)C[C@@H]2CC[C@H]3[C@@H]4CC[C@H](O)[C@@]4(C)CC[C@@H]3[C@@]12C

> <Precursor_InChI>
InChI=1S/C20H30O2/c1-12-10-14(21)11-13-4-5-15-16-6-7-18(22)19(16,2)9-8-17(15)20(12,13)3/h10,13,15-18,22H,4-9,11H2,1-3H3/t13-,15-,16-,17-,18-,19-,20-/m0/s1

> <Precursor_InChIKey>
ANJQEDFWRSLVBR-VHUDCFPWSA-N

> <Precursor_ALogP>


> <Precursor_Major_Isotope_Mass>
302.2245

$$$$
BTM00005
  CDK     09122622092D

 23 26  0  0  1  0  0  0  0  0999 V2000
   -2.9800    1.9400    0.0000 C   0  0  0  0  0  0  0  0  0  0  0  0
   -2.9800    0.4400    0.0000 C   0  0  0  0  0  0  0  0  0  0  0  0
   -4.2800   -0.3100    0.0000 C   0  0  0  0  0  0  0  0  0  0  0  0
   -4.2800   -1.8100    0.0000 C   0  0  0  0  0  0  0  0  0  0  0  0
   -5.5789   -2.5602    0.0000 O   0  0  0  0  0  0  0  0  0  0  0  0
   -2.9800   -2.5600    0.0000 C   0  0  0  0  0  0  0  0  0  0  0  0
   -1.6800   -1.8100    0.0000 C   0  0  2  0  0  0  0  0  0  0  0  0
   -0.3800   -2.5600    0.0000 C   0  0  0  0  0  0  0  0  0  0  0  0
    0.9200   -1.8100    0.0000 C   0  0  0  0  0  0  0  0  0  0  0  0
    0.9200   -0.3100    0.0000 C   0  0  1  0  0  0  0  0  0  0  0  0
    2.2200    0.4400    0.0000 C   0  0  2  0  0  0  0  0  0  0  0  0
    3.6500   -0.0200    0.0000 C   0  0  0  0  0  0  0  0  0  0  0  0
    4.5300    1.1900    0.0000 C   0  0  0  0  0  0  0  0  0  0  0  0
    3.6500    2.4000    0.0000 C   0  0  2  0  0  0  0  0  0  0  0  0
    4.1153    3.8260    0.0000 O   0  0  0  0  0  0  0  0  0  0  0  0
    2.2200    1.9400    0.0000 C   0  0  2  0  0  0  0  0  0  0  0  0
    2.3787    3.4316    0.0000 C   0  0  0  0  0  0  0  0  0  0  0  0
    0.9200    2.6900    0.0000 C   0  0  0  0  0  0  0  0  0  0  0  0
   -0.3800    1.9400    0.0000 C   0  0  0  0  0  0  0  0  0  0  0  0
   -0.3800    0.4400    0.0000 C   0  0  2  0  0  0  0  0  0  0  0  0
   -1.6800   -0.3100    0.0000 C   0  0  1  0  0  0  0  0  0  0  0  0
   -1.6800    1.1900    0.0000 C   0  0  0  0  0  0  0  0  0  0  0  0
    6.0300    1.1900    0.0000 O   0  0  0  0  0  0  0  0  0  0  0  0
  1  2  1  0  0  0  0
  2  3  2  0  0  0  0
  3  4  1  0  0  0  0
  4  5  2  0  0  0  0
  4  6  1  0  0  0  0
  7  6  1  1  0  0  0
  7  8  1  0  0  0  0
  8  9  1  0  0  0  0
 10  9  1  6  0  0  0
 10 11  1  0  0  0  0
 11 12  1  1  0  0  0
 12 13  1  0  0  0  0
 13 14  1  0  0  0  0
 14 15  1  1  0  0  0
 14 16  1  0  0  0  0
 11 16  1  0  0  0  0
 16 17  1  1  0  0  0
 16 18  1  0  0  0  0
 18 19  1  0  0  0  0
 20 19  1  1  0  0  0
 10 20  1  0  0  0  0
 20 21  1  0  0  0  0
  2 21  1  0  0  0  0
  7 21  1  0  0  0  0
 21 22  1  1  0  0  0
 23 13  1  0  0  0  0
M  END
> <InChI>
InChI=1S/C20H30O3/c1-11-8-13(21)9-12-4-5-14-15(20(11,12)3)6-7-19(2)16(14)10-17(22)18(19)23/h8,12,14-18,22-23H,4-7,9-10H2,1-3H3/t12-,14+,15-,16-,17?,18-,19-,20-/m0/s1

> <InChIKey>
CHSIFQRJVNNORI-GTAIRLKOSA-N

> <SMILES>
CC1=CC(=O)C[C@@H]2CC[C@H]3[C@@H]4CC([C@H](O)[C@@]4(C)CC[C@@H]3[C@@]12C)O

> <Synonyms>


> <PUBCHEM_CID>


> <Molecular_formula>
C20H30O3

> <Major_Isotope_Mass>
318.21949481999997

> <ALogP>
2.618199999999998

> <Lipinski_Violations>
0

> <Insecticide_Likeness_Violations>
0

> <Post_Em_Herbicide_Likeness_Violations>
0

> <Metabolite_ID>
BTM00005

> <Reaction>
16-Hydroxylation of sterol

> <Reaction_ID>
BTMR0407

> <Enzyme(s)>
CYP1A2
CYP2A6
CYP2B6
CYP2C8
CYP2C9
CYP2C19
CYP2D6
CYP2E1
CYP3A4

> <Biosystem>
HUMAN

> <Precursor_ID>


> <Precursor_SMILES>
CC1=CC(=O)C[C@@H]2CC[C@H]3[C@@H]4CC[C@H](O)[C@@]4(C)CC[C@@H]3[C@@]12C

> <Precursor_InChI>
InChI=1S/C20H30O2/c1-12-10-14(21)11-13-4-5-15-16-6-7-18(22)19(16,2)9-8-17(15)20(12,13)3/h10,13,15-18,22H,4-9,11H2,1-3H3/t13-,15-,16-,17-,18-,19-,20-/m0/s1

> <Precursor_InChIKey>
ANJQEDFWRSLVBR-VHUDCFPWSA-N

> <Precursor_ALogP>


> <Precursor_Major_Isotope_Mass>
302.2245

$$$$
BTM00006
  CDK     09122622092D

 23 26  0  0  1  0  0  0  0  0999 V2000
   -2.9800    1.9400    0.0000 C   0  0  0  0  0  0  0  0  0  0  0  0
   -2.9800    0.4400    0.0000 C   0  0  0  0  0  0  0  0  0  0  0  0
   -4.2800   -0.3100    0.0000 C   0  0  0  0  0  0  0  0  0  0  0  0
   -4.2800   -1.8100    0.0000 C   0  0  0  0  0  0  0  0  0  0  0  0
   -5.5789   -2.5602    0.0000 O   0  0  0  0  0  0  0  0  0  0  0  0
   -2.9800   -2.5600    0.0000 C   0  0  0  0  0  0  0  0  0  0  0  0
   -1.6800   -1.8100    0.0000 C   0  0  2  0  0  0  0  0  0  0  0  0
   -0.3800   -2.5600    0.0000 C   0  0  0  0  0  0  0  0  0  0  0  0
    0.9200   -1.8100    0.0000 C   0  0  0  0  0  0  0  0  0  0  0  0
    0.9200   -0.3100    0.0000 C   0  0  1  0  0  0  0  0  0  0  0  0
    2.2200    0.4400    0.0000 C   0  0  2  0  0  0  0  0  0  0  0  0
    3.6500   -0.0200    0.0000 C   0  0  0  0  0  0  0  0  0  0  0  0
    4.5300    1.1900    0.0000 C   0  0  0  0  0  0  0  0  0  0  0  0
    3.6500    2.4000    0.0000 C   0  0  2  0  0  0  0  0  0  0  0  0
    4.1153    3.8260    0.0000 O   0  0  0  0  0  0  0  0  0  0  0  0
    2.2200    1.9400    0.0000 C   0  0  2  0  0  0  0  0  0  0  0  0
    2.3787    3.4316    0.0000 C   0  0  0  0  0  0  0  0  0  0  0  0
    0.9200    2.6900    0.0000 C   0  0  0  0  0  0  0  0  0  0  0  0
   -0.3800    1.9400    0.0000 C   0  0  0  0  0  0  0  0  0  0  0  0
   -0.3800    0.4400    0.0000 C   0  0  2  0  0  0  0  0  0  0  0  0
   -1.6800   -0.3100    0.0000 C   0  0  1  0  0  0  0  0  0  0  0  0
   -1.6800    1.1900    0.0000 C   0  0  0  0  0  0  0  0  0  0  0  0
   -5.5789    0.4402    0.0000 O   0  0  0  0  0  0  0  0  0  0  0  0
  1  2  1  0  0  0  0
  2  3  2  0  0  0  0
  3  4  1  0  0  0  0
  4  5  2  0  0  0  0
  4  6  1  0  0  0  0
  7  6  1  1  0  0  0
  7  8  1  0  0  0  0
  8  9  1  0  0  0  0
 10  9  1  6  0  0  0
 10 11  1  0  0  0  0
 11 12  1  1  0  0  0
 12 13  1  0  0  0  0
 13 14  1  0  0  0  0
 14 15  1  1  0  0  0
 14 16  1  0  0  0  0
 11 16  1  0  0  0  0
 16 17  1  1  0  0  0
 16 18  1  0  0  0  0
 18 19  1  0  0  0  0
 20 19  1  1  0  0  0
 10 20  1  0  0  0  0
 20 21  1  0  0  0  0
  2 21  1  0  0  0  0
  7 21  1  0  0  0  0
 21 22  1  1  0  0  0
 23  3  1  0  0  0  0
M  END
> <InChI>
InChI=1S/C20H30O3/c1-11-18(23)16(21)10-12-4-5-13-14-6-7-17(22)19(14,2)9-8-15(13)20(11,12)3/h12-15,17,22-23H,4-10H2,1-3H3/t12-,13-,14-,15-,17-,19-,20-/m0/s1

> <InChIKey>
IGYUPZPMWUCUKX-UXSGHIFXSA-N

> <SMILES>
CC1=C(C(=O)C[C@@H]2CC[C@H]3[C@@H]4CC[C@H](O)[C@@]4(C)CC[C@@H]3[C@@]12C)O

> <Synonyms>


> <PUBCHEM_CID>


> <Molecular_formula>
C20H30O3

> <Major_Isotope_Mass>
318.21949481999997

> <ALogP>
3.021999999999999

> <Lipinski_Violations>
0

> <Insecticide_Likeness_Violations>
0

> <Post_Em_Herbicide_Likeness_Violations>
0

> <Metabolite_ID>
BTM00006

> <Reaction>
2-Hydroxylation of sterol

> <Reaction_ID>
BTMR0398

> <Enzyme(s)>
CYP1A2
CYP2C19
CYP3A4

> <Biosystem>
HUMAN

> <Precursor_ID>


> <Precursor_SMILES>
CC1=CC(=O)C[C@@H]2CC[C@H]3[C@@H]4CC[C@H](O)[C@@]4(C)CC[C@@H]3[C@@]12C

> <Precursor_InChI>
InChI=1S/C20H30O2/c1-12-10-14(21)11-13-4-5-15-16-6-7-18(22)19(16,2)9-8-17(15)20(12,13)3/h10,13,15-18,22H,4-9,11H2,1-3H3/t13-,15-,16-,17-,18-,19-,20-/m0/s1

> <Precursor_InChIKey>
ANJQEDFWRSLVBR-VHUDCFPWSA-N

> <Precursor_ALogP>


> <Precursor_Major_Isotope_Mass>
302.2245

$$$$
BTM00007
  CDK     09122622092D

 23 26  0  0  1  0  0  0  0  0999 V2000
   -2.9800    1.9400    0.0000 C   0  0  0  0  0  0  0  0  0  0  0  0
   -2.9800    0.4400    0.0000 C   0  0  0  0  0  0  0  0  0  0  0  0
   -4.2800   -0.3100    0.0000 C   0  0  0  0  0  0  0  0  0  0  0  0
   -4.2800   -1.8100    0.0000 C   0  0  0  0  0  0  0  0  0  0  0  0
   -5.5789   -2.5602    0.0000 O   0  0  0  0  0  0  0  0  0  0  0  0
   -2.9800   -2.5600    0.0000 C   0  0  0  0  0  0  0  0  0  0  0  0
   -1.6800   -1.8100    0.0000 C   0  0  2  0  0  0  0  0  0  0  0  0
   -0.3800   -2.5600    0.0000 C   0  0  0  0  0  0  0  0  0  0  0  0
    0.9200   -1.8100    0.0000 C   0  0  0  0  0  0  0  0  0  0  0  0
    0.9200   -0.3100    0.0000 C   0  0  1  0  0  0  0  0  0  0  0  0
    2.2200    0.4400    0.0000 C   0  0  2  0  0  0  0  0  0  0  0  0
    3.6500   -0.0200    0.0000 C   0  0  0  0  0  0  0  0  0  0  0  0
    4.5300    1.1900    0.0000 C   0  0  0  0  0  0  0  0  0  0  0  0
    3.6500    2.4000    0.0000 C   0  0  2  0  0  0  0  0  0  0  0  0
    4.1153    3.8260    0.0000 O   0  0  0  0  0  0  0  0  0  0  0  0
    2.2200    1.9400    0.0000 C   0  0  2  0  0  0  0  0  0  0  0  0
    2.3787    3.4316    0.0000 C   0  0  0  0  0  0  0  0  0  0  0  0
    0.9200    2.6900    0.0000 C   0  0  0  0  0  0  0  0  0  0  0  0
   -0.3800    1.9400    0.0000 C   0  0  0  0  0  0  0  0  0  0  0  0
   -0.3800    0.4400    0.0000 C   0  0  2  0  0  0  0  0  0  0  0  0
   -1.6800   -0.3100    0.0000 C   0  0  1  0  0  0  0  0  0  0  0  0
   -1.6800    1.1900    0.0000 C   0  0  0  0  0  0  0  0  0  0  0  0
   -2.9800   -4.0600    0.0000 O   0  0  0  0  0  0  0  0  0  0  0  0
  1  2  1  0  0  0  0
  2  3  2  0  0  0  0
  3  4  1  0  0  0  0
  4  5  2  0  0  0  0
  4  6  1  0  0  0  0
  6  7  1  0  0  0  0
  7  8  1  1  0  0  0
  8  9  1  0  0  0  0
 10  9  1  6  0  0  0
 10 11  1  0  0  0  0
 11 12  1  1  0  0  0
 12 13  1  0  0  0  0
 13 14  1  0  0  0  0
 14 15  1  1  0  0  0
 14 16  1  0  0  0  0
 11 16  1  0  0  0  0
 16 17  1  1  0  0  0
 16 18  1  0  0  0  0
 18 19  1  0  0  0  0
 20 19  1  1  0  0  0
 10 20  1  0  0  0  0
 20 21  1  0  0  0  0
  2 21  1  0  0  0  0
  7 21  1  0  0  0  0
 21 22  1  1  0  0  0
 23  6  1  0  0  0  0
M  END
> <InChI>
InChI=1S/C20H30O3/c1-11-10-16(21)18(23)15-5-4-12-13-6-7-17(22)19(13,2)9-8-14(12)20(11,15)3/h10,12-15,17-18,22-23H,4-9H2,1-3H3/t12-,13-,14-,15-,17-,18?,19-,20+/m0/s1

> <InChIKey>
SGAIPERKIUYZEY-LVIKUXLSSA-N

> <SMILES>
CC1=CC(=O)C([C@@H]2CC[C@H]3[C@@H]4CC[C@H](O)[C@@]4(C)CC[C@@H]3[C@@]12C)O

> <Synonyms>


> <PUBCHEM_CID>


> <Molecular_formula>
C20H30O3

> <Major_Isotope_Mass>
318.21949481999997

> <ALogP>
2.9720999999999966

> <Lipinski_Violations>
0

> <Insecticide_Likeness_Violations>
0

> <Post_Em_Herbicide_Likeness_Violations>
0

> <Metabolite_ID>
BTM00007

> <Reaction>
4-Hydroxylation of sterol

> <Reaction_ID>
BTMR0400

> <Enzyme(s)>
CYP1A2
CYP3A4

> <Biosystem>
HUMAN

> <Precursor_ID>


> <Precursor_SMILES>
CC1=CC(=O)C[C@@H]2CC[C@H]3[C@@H]4CC[C@H](O)[C@@]4(C)CC[C@@H]3[C@@]12C

> <Precursor_InChI>
InChI=1S/C20H30O2/c1-12-10-14(21)11-13-4-5-15-16-6-7-18(22)19(16,2)9-8-17(15)20(12,13)3/h10,13,15-18,22H,4-9,11H2,1-3H3/t13-,15-,16-,17-,18-,19-,20-/m0/s1

> <Precursor_InChIKey>
ANJQEDFWRSLVBR-VHUDCFPWSA-N

> <Precursor_ALogP>


> <Precursor_Major_Isotope_Mass>
302.2245

$$$$
BTM00008
  CDK     09122622092D

 23 27  0  0  1  0  0  0  0  0999 V2000
   -1.9904    1.6793    0.0000 C   0  0  0  0  0  0  0  0  0  0  0  0
   -2.7400    0.3800    0.0000 C   0  0  0  0  0  0  0  0  0  0  0  0
   -4.0400   -0.3800    0.0000 C   0  0  0  0  0  0  0  0  0  0  0  0
   -4.0400   -1.8800    0.0000 C   0  0  0  0  0  0  0  0  0  0  0  0
   -5.3367   -2.6340    0.0000 O   0  0  0  0  0  0  0  0  0  0  0  0
   -2.7400   -2.6200    0.0000 C   0  0  0  0  0  0  0  0  0  0  0  0
   -1.4400   -1.8800    0.0000 C   0  0  2  0  0  0  0  0  0  0  0  0
   -0.1400   -2.6200    0.0000 C   0  0  0  0  0  0  0  0  0  0  0  0
    1.1600   -1.8800    0.0000 C   0  0  0  0  0  0  0  0  0  0  0  0
    1.1600   -0.3800    0.0000 C   0  0  1  0  0  0  0  0  0  0  0  0
    2.4600    0.3800    0.0000 C   0  0  2  0  0  0  0  0  0  0  0  0
    3.8800   -0.0900    0.0000 C   0  0  0  0  0  0  0  0  0  0  0  0
    4.7600    1.1200    0.0000 C   0  0  0  0  0  0  0  0  0  0  0  0
    3.8800    2.3400    0.0000 C   0  0  2  0  0  0  0  0  0  0  0  0
    4.3466    3.7656    0.0000 O   0  0  0  0  0  0  0  0  0  0  0  0
    2.4600    1.8800    0.0000 C   0  0  2  0  0  0  0  0  0  0  0  0
    2.6129    3.3722    0.0000 C   0  0  0  0  0  0  0  0  0  0  0  0
    1.1600    2.6200    0.0000 C   0  0  0  0  0  0  0  0  0  0  0  0
   -0.1400    1.8800    0.0000 C   0  0  0  0  0  0  0  0  0  0  0  0
   -0.1400    0.3800    0.0000 C   0  0  2  0  0  0  0  0  0  0  0  0
   -1.4400   -0.3800    0.0000 C   0  0  1  0  0  0  0  0  0  0  0  0
   -1.4400    1.1200    0.0000 C   0  0  0  0  0  0  0  0  0  0  0  0
   -4.0400    1.1200    0.0000 O   0  0  0  0  0  0  0  0  0  0  0  0
  1  2  1  0  0  0  0
  2  3  1  0  0  0  0
  3  4  1  0  0  0  0
  4  5  2  0  0  0  0
  4  6  1  0  0  0  0
  7  6  1  1  0  0  0
  7  8  1  0  0  0  0
  8  9  1  0  0  0  0
 10  9  1  6  0  0  0
 10 11  1  0  0  0  0
 11 12  1  1  0  0  0
 12 13  1  0  0  0  0
 13 14  1  0  0  0  0
 14 15  1  1  0  0  0
 14 16  1  0  0  0  0
 11 16  1  0  0  0  0
 16 17  1  1  0  0  0
 16 18  1  0  0  0  0
 18 19  1  0  0  0  0
 20 19  1  1  0  0  0
 10 20  1  0  0  0  0
 20 21  1  0  0  0  0
  2 21  1  0  0  0  0
  7 21  1  0  0  0  0
 21 22  1  1  0  0  0
  2 23  1  0  0  0  0
 23  3  1  0  0  0  0
M  END
> <InChI>
InChI=1S/C20H30O3/c1-18-9-8-14-12(13(18)6-7-16(18)22)5-4-11-10-15(21)17-20(3,23-17)19(11,14)2/h11-14,16-17,22H,4-10H2,1-3H3/t11-,12-,13-,14-,16-,17?,18-,19-,20?/m0/s1

> <InChIKey>
LDONCMCXNCWMKU-WURNGSPMSA-N

> <SMILES>
CC12C(C(=O)C[C@@H]3CC[C@H]4[C@@H]5CC[C@H](O)[C@@]5(C)CC[C@@H]4[C@@]13C)O2

> <Synonyms>


> <PUBCHEM_CID>


> <Molecular_formula>
C20H30O3

> <Major_Isotope_Mass>
318.21949481999997

> <ALogP>
2.6209999999999964

> <Lipinski_Violations>
0

> <Insecticide_Likeness_Violations>
0

> <Post_Em_Herbicide_Likeness_Violations>
0

> <Metabolite_ID>
BTM00008

> <Reaction>
Epoxidation of alkene

> <Reaction_ID>
BTMR0110

> <Enzyme(s)>
CYP1A2
CYP2B6
CYP2B6
CYP2C8
CYP2C9
CYP2C19
CYP2D6
CYP2E1
CYP3A4

> <Biosystem>
HUMAN

> <Precursor_ID>


> <Precursor_SMILES>
CC1=CC(=O)C[C@@H]2CC[C@H]3[C@@H]4CC[C@H](O)[C@@]4(C)CC[C@@H]3[C@@]12C

> <Precursor_InChI>
InChI=1S/C20H30O2/c1-12-10-14(21)11-13-4-5-15-16-6-7-18(22)19(16,2)9-8-17(15)20(12,13)3/h10,13,15-18,22H,4-9,11H2,1-3H3/t13-,15-,16-,17-,18-,19-,20-/m0/s1

> <Precursor_InChIKey>
ANJQEDFWRSLVBR-VHUDCFPWSA-N

> <Precursor_ALogP>


> <Precursor_Major_Isotope_Mass>
302.2245

$$$$
BTM00009
  CDK     09122622092D

 23 26  0  0  1  0  0  0  0  0999 V2000
   -2.9800    1.9400    0.0000 C   0  0  0  0  0  0  0  0  0  0  0  0
   -2.9800    0.4400    0.0000 C   0  0  0  0  0  0  0  0  0  0  0  0
   -4.2800   -0.3100    0.0000 C   0  0  0  0  0  0  0  0  0  0  0  0
   -4.2800   -1.8100    0.0000 C   0  0  0  0  0  0  0  0  0  0  0  0
   -5.5789   -2.5602    0.0000 O   0  0  0  0  0  0  0  0  0  0  0  0
   -2.9800   -2.5600    0.0000 C   0  0  0  0  0  0  0  0  0  0  0  0
   -1.6800   -1.8100    0.0000 C   0  0  2  0  0  0  0  0  0  0  0  0
   -0.3800   -2.5600    0.0000 C   0  0  0  0  0  0  0  0  0  0  0  0
    0.9200   -1.8100    0.0000 C   0  0  0  0  0  0  0  0  0  0  0  0
    0.9200   -0.3100    0.0000 C   0  0  1  0  0  0  0  0  0  0  0  0
    2.2200    0.4400    0.0000 C   0  0  2  0  0  0  0  0  0  0  0  0
    3.6500   -0.0200    0.0000 C   0  0  0  0  0  0  0  0  0  0  0  0
    4.5300    1.1900    0.0000 C   0  0  0  0  0  0  0  0  0  0  0  0
    3.6500    2.4000    0.0000 C   0  0  2  0  0  0  0  0  0  0  0  0
    4.1153    3.8260    0.0000 O   0  0  0  0  0  0  0  0  0  0  0  0
    2.2200    1.9400    0.0000 C   0  0  2  0  0  0  0  0  0  0  0  0
    2.3787    3.4316    0.0000 C   0  0  0  0  0  0  0  0  0  0  0  0
    0.9200    2.6900    0.0000 C   0  0  0  0  0  0  0  0  0  0  0  0
   -0.3800    1.9400    0.0000 C   0  0  0  0  0  0  0  0  0  0  0  0
   -0.3800    0.4400    0.0000 C   0  0  2  0  0  0  0  0  0  0  0  0
   -1.6800   -0.3100    0.0000 C   0  0  1  0  0  0  0  0  0  0  0  0
   -1.6800    1.1900    0.0000 C   0  0  0  0  0  0  0  0  0  0  0  0
   -0.3800   -4.0600    0.0000 O   0  0  0  0  0  0  0  0  0  0  0  0
  1  2  1  0  0  0  0
  2  3  2  0  0  0  0
  3  4  1  0  0  0  0
  4  5  2  0  0  0  0
  4  6  1  0  0  0  0
  7  6  1  1  0  0  0
  7  8  1  0  0  0  0
  8  9  1  0  0  0  0
 10  9  1  6  0  0  0
 10 11  1  0  0  0  0
 11 12  1  1  0  0  0
 12 13  1  0  0  0  0
 13 14  1  0  0  0  0
 14 15  1  1  0  0  0
 14 16  1  0  0  0  0
 11 16  1  0  0  0  0
 16 17  1  1  0  0  0
 16 18  1  0  0  0  0
 18 19  1  0  0  0  0
 20 19  1  1  0  0  0
 10 20  1  0  0  0  0
 20 21  1  0  0  0  0
  2 21  1  0  0  0  0
  7 21  1  0  0  0  0
 21 22  1  1  0  0  0
 23  8  1  0  0  0  0
M  END
> <InChI>
InChI=1S/C20H30O3/c1-11-8-12(21)9-16-17(22)10-13-14-4-5-18(23)19(14,2)7-6-15(13)20(11,16)3/h8,13-18,22-23H,4-7,9-10H2,1-3H3/t13-,14-,15-,16+,17?,18-,19-,20+/m0/s1

> <InChIKey>
GHVHKBNJFBVSIY-SHUYBGCDSA-N

> <SMILES>
CC1=CC(=O)C[C@@H]2C(C[C@H]3[C@@H]4CC[C@H](O)[C@@]4(C)CC[C@@H]3[C@@]12C)O

> <Synonyms>


> <PUBCHEM_CID>


> <Molecular_formula>
C20H30O3

> <Major_Isotope_Mass>
318.21949481999997

> <ALogP>
2.415699999999997

> <Lipinski_Violations>
0

> <Insecticide_Likeness_Violations>
0

> <Post_Em_Herbicide_Likeness_Violations>
0

> <Metabolite_ID>
BTM00009

> <Reaction>
6-Hydroxylation of sterol

> <Reaction_ID>
BTMR0402

> <Enzyme(s)>
CYP2A6
CYP2B6
CYP2C8
CYP2C9
CYP2C19
CYP2D6
CYP3A4

> <Biosystem>
HUMAN

> <Precursor_ID>


> <Precursor_SMILES>
CC1=CC(=O)C[C@@H]2CC[C@H]3[C@@H]4CC[C@H](O)[C@@]4(C)CC[C@@H]3[C@@]12C

> <Precursor_InChI>
InChI=1S/C20H30O2/c1-12-10-14(21)11-13-4-5-15-16-6-7-18(22)19(16,2)9-8-17(15)20(12,13)3/h10,13,15-18,22H,4-9,11H2,1-3H3/t13-,15-,16-,17-,18-,19-,20-/m0/s1

> <Precursor_InChIKey>
ANJQEDFWRSLVBR-VHUDCFPWSA-N

> <Precursor_ALogP>


> <Precursor_Major_Isotope_Mass>
302.2245

$$$$
BTM00010
  CDK     09122622092D

 23 26  0  0  1  0  0  0  0  0999 V2000
   -2.9800    1.9400    0.0000 C   0  0  0  0  0  0  0  0  0  0  0  0
   -2.9800    0.4400    0.0000 C   0  0  0  0  0  0  0  0  0  0  0  0
   -4.2800   -0.3100    0.0000 C   0  0  0  0  0  0  0  0  0  0  0  0
   -4.2800   -1.8100    0.0000 C   0  0  0  0  0  0  0  0  0  0  0  0
   -5.5789   -2.5602    0.0000 O   0  0  0  0  0  0  0  0  0  0  0  0
   -2.9800   -2.5600    0.0000 C   0  0  0  0  0  0  0  0  0  0  0  0
   -1.6800   -1.8100    0.0000 C   0  0  2  0  0  0  0  0  0  0  0  0
   -0.3800   -2.5600    0.0000 C   0  0  0  0  0  0  0  0  0  0  0  0
    0.9200   -1.8100    0.0000 C   0  0  0  0  0  0  0  0  0  0  0  0
    0.9200   -0.3100    0.0000 C   0  0  1  0  0  0  0  0  0  0  0  0
    2.2200    0.4400    0.0000 C   0  0  2  0  0  0  0  0  0  0  0  0
    3.6500   -0.0200    0.0000 C   0  0  0  0  0  0  0  0  0  0  0  0
    4.5300    1.1900    0.0000 C   0  0  0  0  0  0  0  0  0  0  0  0
    3.6500    2.4000    0.0000 C   0  0  2  0  0  0  0  0  0  0  0  0
    4.1153    3.8260    0.0000 O   0  0  0  0  0  0  0  0  0  0  0  0
    2.2200    1.9400    0.0000 C   0  0  2  0  0  0  0  0  0  0  0  0
    2.3787    3.4316    0.0000 C   0  0  0  0  0  0  0  0  0  0  0  0
    0.9200    2.6900    0.0000 C   0  0  0  0  0  0  0  0  0  0  0  0
   -0.3800    1.9400    0.0000 C   0  0  0  0  0  0  0  0  0  0  0  0
   -0.3800    0.4400    0.0000 C   0  0  2  0  0  0  0  0  0  0  0  0
   -1.6800   -0.3100    0.0000 C   0  0  1  0  0  0  0  0  0  0  0  0
   -1.6800    1.1900    0.0000 C   0  0  0  0  0  0  0  0  0  0  0  0
   -4.2790    2.6900    0.0000 O   0  0  0  0  0  0  0  0  0  0  0  0
  1  2  1  0  0  0  0
  2  3  2  0  0  0  0
  3  4  1  0  0  0  0
  4  5  2  0  0  0  0
  4  6  1  0  0  0  0
  7  6  1  1  0  0  0
  7  8  1  0  0  0  0
  8  9  1  0  0  0  0
 10  9  1  6  0  0  0
 10 11  1  0  0  0  0
 11 12  1  1  0  0  0
 12 13  1  0  0  0  0
 13 14  1  0  0  0  0
 14 15  1  1  0  0  0
 14 16  1  0  0  0  0
 11 16  1  0  0  0  0
 16 17  1  1  0  0  0
 16 18  1  0  0  0  0
 18 19  1  0  0  0  0
 20 19  1  1  0  0  0
 10 20  1  0  0  0  0
 20 21  1  0  0  0  0
  2 21  1  0  0  0  0
  7 21  1  0  0  0  0
 21 22  1  1  0  0  0
 23  1  1  0  0  0  0
M  END
> <InChI>
InChI=1S/C20H30O3/c1-19-8-7-17-15(16(19)5-6-18(19)23)4-3-12-9-14(22)10-13(11-21)20(12,17)2/h10,12,15-18,21,23H,3-9,11H2,1-2H3/t12-,15-,16-,17-,18-,19-,20+/m0/s1

> <InChIKey>
DXPYHQHKZANMMW-CMOJMIBCSA-N

> <SMILES>
C(C1=CC(=O)C[C@@H]2CC[C@H]3[C@@H]4CC[C@H](O)[C@@]4(C)CC[C@@H]3[C@@]12C)O

> <Synonyms>


> <PUBCHEM_CID>


> <Molecular_formula>
C20H30O3

> <Major_Isotope_Mass>
318.21949481999997

> <ALogP>
2.4944000000000006

> <Lipinski_Violations>
0

> <Insecticide_Likeness_Violations>
0

> <Post_Em_Herbicide_Likeness_Violations>
0

> <Metabolite_ID>
BTM00010

> <Reaction>
Hydroxylation of methyl carbon adjacent to aliphatic ring

> <Reaction_ID>
BTMR0054

> <Enzyme(s)>
CYP2B6
CYP2C8
CYP2C9
CYP2C19
CYP2D6
CYP3A4

> <Biosystem>
HUMAN

> <Precursor_ID>


> <Precursor_SMILES>
CC1=CC(=O)C[C@@H]2CC[C@H]3[C@@H]4CC[C@H](O)[C@@]4(C)CC[C@@H]3[C@@]12C

> <Precursor_InChI>
InChI=1S/C20H30O2/c1-12-10-14(21)11-13-4-5-15-16-6-7-18(22)19(16,2)9-8-17(15)20(12,13)3/h10,13,15-18,22H,4-9,11H2,1-3H3/t13-,15-,16-,17-,18-,19-,20-/m0/s1

> <Precursor_InChIKey>
ANJQEDFWRSLVBR-VHUDCFPWSA-N

> <Precursor_ALogP>


> <Precursor_Major_Isotope_Mass>
302.2245

$$$$
BTM00011
  CDK     09122622092D

 23 26  0  0  1  0  0  0  0  0999 V2000
   -2.9800    0.9800    0.0000 C   0  0  0  0  0  0  0  0  0  0  0  0
   -2.9800   -0.5200    0.0000 C   0  0  0  0  0  0  0  0  0  0  0  0
   -4.2800   -1.2700    0.0000 C   0  0  0  0  0  0  0  0  0  0  0  0
   -4.2800   -2.7700    0.0000 C   0  0  0  0  0  0  0  0  0  0  0  0
   -5.5789   -3.5202    0.0000 O   0  0  0  0  0  0  0  0  0  0  0  0
   -2.9800   -3.5200    0.0000 C   0  0  0  0  0  0  0  0  0  0  0  0
   -1.6800   -2.7700    0.0000 C   0  0  2  0  0  0  0  0  0  0  0  0
   -0.3800   -3.5200    0.0000 C   0  0  0  0  0  0  0  0  0  0  0  0
    0.9200   -2.7700    0.0000 C   0  0  0  0  0  0  0  0  0  0  0  0
    0.9200   -1.2700    0.0000 C   0  0  1  0  0  0  0  0  0  0  0  0
    2.2200   -0.5200    0.0000 C   0  0  2  0  0  0  0  0  0  0  0  0
    3.6500   -0.9800    0.0000 C   0  0  0  0  0  0  0  0  0  0  0  0
    4.5300    0.2300    0.0000 C   0  0  0  0  0  0  0  0  0  0  0  0
    3.6500    1.4400    0.0000 C   0  0  2  0  0  0  0  0  0  0  0  0
    4.1153    2.8660    0.0000 O   0  0  0  0  0  0  0  0  0  0  0  0
    2.2200    0.9800    0.0000 C   0  0  2  0  0  0  0  0  0  0  0  0
    2.3787    2.4716    0.0000 C   0  0  0  0  0  0  0  0  0  0  0  0
    0.9200    1.7300    0.0000 C   0  0  0  0  0  0  0  0  0  0  0  0
   -0.3800    0.9800    0.0000 C   0  0  0  0  0  0  0  0  0  0  0  0
   -0.3800   -0.5200    0.0000 C   0  0  2  0  0  0  0  0  0  0  0  0
   -1.6800   -1.2700    0.0000 C   0  0  1  0  0  0  0  0  0  0  0  0
   -1.6800    1.1900    0.0000 C   0  0  0  0  0  0  0  0  0  0  0  0
   -2.9790    1.9400    0.0000 O   0  0  0  0  0  0  0  0  0  0  0  0
  1  2  1  0  0  0  0
  2  3  2  0  0  0  0
  3  4  1  0  0  0  0
  4  5  2  0  0  0  0
  4  6  1  0  0  0  0
  7  6  1  1  0  0  0
  7  8  1  0  0  0  0
  8  9  1  0  0  0  0
 10  9  1  6  0  0  0
 10 11  1  0  0  0  0
 11 12  1  1  0  0  0
 12 13  1  0  0  0  0
 13 14  1  0  0  0  0
 14 15  1  1  0  0  0
 14 16  1  0  0  0  0
 11 16  1  0  0  0  0
 16 17  1  1  0  0  0
 16 18  1  0  0  0  0
 18 19  1  0  0  0  0
 20 19  1  1  0  0  0
 10 20  1  0  0  0  0
 20 21  1  0  0  0  0
  2 21  1  0  0  0  0
  7 21  1  0  0  0  0
 21 22  1  1  0  0  0
 23 22  1  0  0  0  0
M  END
> <InChI>
InChI=1S/C20H30O3/c1-12-9-14(22)10-13-3-4-15-16-5-6-18(23)19(16,2)8-7-17(15)20(12,13)11-21/h9,13,15-18,21,23H,3-8,10-11H2,1-2H3/t13-,15-,16-,17-,18-,19-,20-/m0/s1

> <InChIKey>
ZIPZQVKZIRRFAL-VHUDCFPWSA-N

> <SMILES>
CC1=CC(=O)C[C@@H]2CC[C@H]3[C@@H]4CC[C@H](O)[C@@]4(C)CC[C@@H]3[C@@]12CO

> <Synonyms>


> <PUBCHEM_CID>


> <Molecular_formula>
C20H30O3

> <Major_Isotope_Mass>
318.21949482

> <ALogP>
2.4944000000000006

> <Lipinski_Violations>
0

> <Insecticide_Likeness_Violations>
0

> <Post_Em_Herbicide_Likeness_Violations>
0

> <Metabolite_ID>
BTM00011

> <Reaction>
Hydroxylation of methyl carbon adjacent to aliphatic ring

> <Reaction_ID>
BTMR0054

> <Enzyme(s)>
CYP2B6
CYP2C8
CYP2C9
CYP2C19
CYP2D6
CYP3A4

> <Biosystem>
HUMAN

> <Precursor_ID>


> <Precursor_SMILES>
CC1=CC(=O)C[C@@H]2CC[C@H]3[C@@H]4CC[C@H](O)[C@@]4(C)CC[C@@H]3[C@@]12C

> <Precursor_InChI>
InChI=1S/C20H30O2/c1-12-10-14(21)11-13-4-5-15-16-6-7-18(22)19(16,2)9-8-17(15)20(12,13)3/h10,13,15-18,22H,4-9,11H2,1-3H3/t13-,15-,16-,17-,18-,19-,20-/m0/s1

> <Precursor_InChIKey>
ANJQEDFWRSLVBR-VHUDCFPWSA-N

> <Precursor_ALogP>


> <Precursor_Major_Isotope_Mass>
302.2245

$$$$
BTM00012
  CDK     09122622092D

 23 26  0  0  1  0  0  0  0  0999 V2000
   -2.9800    1.9400    0.0000 C   0  0  0  0  0  0  0  0  0  0  0  0
   -2.9800    0.4400    0.0000 C   0  0  0  0  0  0  0  0  0  0  0  0
   -4.2800   -0.3100    0.0000 C   0  0  0  0  0  0  0  0  0  0  0  0
   -4.2800   -1.8100    0.0000 C   0  0  0  0  0  0  0  0  0  0  0  0
   -5.5789   -2.5602    0.0000 O   0  0  0  0  0  0  0  0  0  0  0  0
   -2.9800   -2.5600    0.0000 C   0  0  0  0  0  0  0  0  0  0  0  0
   -1.6800   -1.8100    0.0000 C   0  0  2  0  0  0  0  0  0  0  0  0
   -0.3800   -2.5600    0.0000 C   0  0  0  0  0  0  0  0  0  0  0  0
    0.9200   -1.8100    0.0000 C   0  0  0  0  0  0  0  0  0  0  0  0
    0.9200   -0.3100    0.0000 C   0  0  1  0  0  0  0  0  0  0  0  0
    2.2200    0.4400    0.0000 C   0  0  2  0  0  0  0  0  0  0  0  0
    3.6500   -0.0200    0.0000 C   0  0  0  0  0  0  0  0  0  0  0  0
    4.5300    1.1900    0.0000 C   0  0  0  0  0  0  0  0  0  0  0  0
    3.6500    2.4000    0.0000 C   0  0  2  0  0  0  0  0  0  0  0  0
    4.1153    3.8260    0.0000 O   0  0  0  0  0  0  0  0  0  0  0  0
    2.2200    1.9400    0.0000 C   0  0  2  0  0  0  0  0  0  0  0  0
    2.3787    3.4316    0.0000 C   0  0  0  0  0  0  0  0  0  0  0  0
    0.9200    2.6900    0.0000 C   0  0  0  0  0  0  0  0  0  0  0  0
   -0.3800    1.9400    0.0000 C   0  0  0  0  0  0  0  0  0  0  0  0
   -0.3800    0.4400    0.0000 C   0  0  2  0  0  0  0  0  0  0  0  0
   -1.6800   -0.3100    0.0000 C   0  0  1  0  0  0  0  0  0  0  0  0
   -1.6800    1.1900    0.0000 C   0  0  0  0  0  0  0  0  0  0  0  0
    1.1664    4.3148    0.0000 O   0  0  0  0  0  0  0  0  0  0  0  0
  1  2  1  0  0  0  0
  2  3  2  0  0  0  0
  3  4  1  0  0  0  0
  4  5  2  0  0  0  0
  4  6  1  0  0  0  0
  7  6  1  1  0  0  0
  7  8  1  0  0  0  0
  8  9  1  0  0  0  0
 10  9  1  6  0  0  0
 10 11  1  0  0  0  0
 11 12  1  1  0  0  0
 12 13  1  0  0  0  0
 13 14  1  0  0  0  0
 14 15  1  1  0  0  0
 14 16  1  0  0  0  0
 11 16  1  0  0  0  0
 16 17  1  1  0  0  0
 16 18  1  0  0  0  0
 18 19  1  0  0  0  0
 20 19  1  1  0  0  0
 10 20  1  0  0  0  0
 20 21  1  0  0  0  0
  2 21  1  0  0  0  0
  7 21  1  0  0  0  0
 21 22  1  1  0  0  0
 23 17  1  0  0  0  0
M  END
> <InChI>
InChI=1S/C20H30O3/c1-12-9-14(22)10-13-3-4-15-16(19(12,13)2)7-8-20(11-21)17(15)5-6-18(20)23/h9,13,15-18,21,23H,3-8,10-11H2,1-2H3/t13-,15+,16-,17-,18-,19-,20+/m0/s1

> <InChIKey>
HNEWXHDNZKCWCN-FGVZMBKRSA-N

> <SMILES>
CC1=CC(=O)C[C@@H]2CC[C@H]3[C@@H]4CC[C@H](O)[C@@]4(CO)CC[C@@H]3[C@@]12C

> <Synonyms>


> <PUBCHEM_CID>


> <Molecular_formula>
C20H30O3

> <Major_Isotope_Mass>
318.21949481999997

> <ALogP>
2.4944000000000006

> <Lipinski_Violations>
0

> <Insecticide_Likeness_Violations>
0

> <Post_Em_Herbicide_Likeness_Violations>
0

> <Metabolite_ID>
BTM00012

> <Reaction>
Hydroxylation of methyl carbon adjacent to aliphatic ring

> <Reaction_ID>
BTMR0054

> <Enzyme(s)>
CYP2B6
CYP2C8
CYP2C9
CYP2C19
CYP2D6
CYP3A4

> <Biosystem>
HUMAN

> <Precursor_ID>


> <Precursor_SMILES>
CC1=CC(=O)C[C@@H]2CC[C@H]3[C@@H]4CC[C@H](O)[C@@]4(C)CC[C@@H]3[C@@]12C

> <Precursor_InChI>
InChI=1S/C20H30O2/c1-12-10-14(21)11-13-4-5-15-16-6-7-18(22)19(16,2)9-8-17(15)20(12,13)3/h10,13,15-18,22H,4-9,11H2,1-3H3/t13-,15-,16-,17-,18-,19-,20-/m0/s1

> <Precursor_InChIKey>
ANJQEDFWRSLVBR-VHUDCFPWSA-N

> <Precursor_ALogP>


> <Precursor_Major_Isotope_Mass>
302.2245

$$$$
BTM00013
  CDK     09122622092D

 22 25  0  0  1  0  0  0  0  0999 V2000
   -2.9800    1.9400    0.0000 C   0  0  0  0  0  0  0  0  0  0  0  0
   -2.9800    0.4400    0.0000 C   0  0  0  0  0  0  0  0  0  0  0  0
   -4.2800   -0.3100    0.0000 C   0  0  0  0  0  0  0  0  0  0  0  0
   -4.2800   -1.8100    0.0000 C   0  0  0  0  0  0  0  0  0  0  0  0
   -5.5789   -2.5602    0.0000 O   0  0  0  0  0  0  0  0  0  0  0  0
   -2.9800   -2.5600    0.0000 C   0  0  0  0  0  0  0  0  0  0  0  0
   -1.6800   -1.8100    0.0000 C   0  0  2  0  0  0  0  0  0  0  0  0
   -0.3800   -2.5600    0.0000 C   0  0  0  0  0  0  0  0  0  0  0  0
    0.9200   -1.8100    0.0000 C   0  0  0  0  0  0  0  0  0  0  0  0
    0.9200   -0.3100    0.0000 C   0  0  1  0  0  0  0  0  0  0  0  0
    2.2200    0.4400    0.0000 C   0  0  2  0  0  0  0  0  0  0  0  0
    3.6500   -0.0200    0.0000 C   0  0  0  0  0  0  0  0  0  0  0  0
    4.5300    1.1900    0.0000 C   0  0  0  0  0  0  0  0  0  0  0  0
    3.6500    2.4000    0.0000 C   0  0  2  0  0  0  0  0  0  0  0  0
    4.1153    3.8260    0.0000 O   0  0  0  0  0  0  0  0  0  0  0  0
    2.2200    1.9400    0.0000 C   0  0  2  0  0  0  0  0  0  0  0  0
    2.3787    3.4316    0.0000 C   0  0  0  0  0  0  0  0  0  0  0  0
    0.9200    2.6900    0.0000 C   0  0  0  0  0  0  0  0  0  0  0  0
   -0.3800    1.9400    0.0000 C   0  0  0  0  0  0  0  0  0  0  0  0
   -0.3800    0.4400    0.0000 C   0  0  2  0  0  0  0  0  0  0  0  0
   -1.6800   -0.3100    0.0000 C   0  0  1  0  0  0  0  0  0  0  0  0
   -1.6800    1.1900    0.0000 C   0  0  0  0  0  0  0  0  0  0  0  0
  1  2  1  0  0  0  0
  2  3  1  0  0  0  0
  3  4  1  0  0  0  0
  4  5  2  0  0  0  0
  4  6  1  0  0  0  0
  7  6  1  1  0  0  0
  7  8  1  0  0  0  0
  8  9  1  0  0  0  0
 10  9  1  6  0  0  0
 10 11  1  0  0  0  0
 11 12  1  1  0  0  0
 12 13  1  0  0  0  0
 13 14  1  0  0  0  0
 14 15  1  1  0  0  0
 14 16  1  0  0  0  0
 11 16  1  0  0  0  0
 16 17  1  1  0  0  0
 16 18  1  0  0  0  0
 18 19  1  0  0  0  0
 20 19  1  1  0  0  0
 10 20  1  0  0  0  0
 20 21  1  0  0  0  0
  2 21  1  0  0  0  0
  7 21  1  0  0  0  0
 21 22  1  1  0  0  0
M  END
> <InChI>
InChI=1S/C20H32O2/c1-12-10-14(21)11-13-4-5-15-16-6-7-18(22)19(16,2)9-8-17(15)20(12,13)3/h12-13,15-18,22H,4-11H2,1-3H3/t12?,13-,15-,16-,17-,18-,19-,20-/m0/s1

> <InChIKey>
UXYRZJKIQKRJCF-SIKGKGKSSA-N

> <SMILES>
CC1CC(=O)C[C@@H]2CC[C@H]3[C@@H]4CC[C@H](O)[C@@]4(C)CC[C@@H]3[C@@]12C

> <Synonyms>


> <PUBCHEM_CID>


> <Molecular_formula>
C20H32O2

> <Major_Isotope_Mass>
304.240230264

> <ALogP>
3.413700000000002

> <Lipinski_Violations>
1

> <Insecticide_Likeness_Violations>
0

> <Post_Em_Herbicide_Likeness_Violations>
0

> <Metabolite_ID>
BTM00013

> <Reaction>
Reduction of alpha,beta-unsaturated carbon-carbon double bond adjacent to electron withdrawing group

> <Reaction_ID>
BTMR1209

> <Enzyme(s)>
EC 1.6.99.1

> <Biosystem>
GUTMICRO

> <Precursor_ID>


> <Precursor_SMILES>
CC1=CC(=O)C[C@@H]2CC[C@H]3[C@@H]4CC[C@H](O)[C@@]4(C)CC[C@@H]3[C@@]12C

> <Precursor_InChI>
InChI=1S/C20H30O2/c1-12-10-14(21)11-13-4-5-15-16-6-7-18(22)19(16,2)9-8-17(15)20(12,13)3/h10,13,15-18,22H,4-9,11H2,1-3H3/t13-,15-,16-,17-,18-,19-,20-/m0/s1

> <Precursor_InChIKey>
ANJQEDFWRSLVBR-VHUDCFPWSA-N

> <Precursor_ALogP>


> <Precursor_Major_Isotope_Mass>
302.2245

$$$$
