BTM00001
  CDK     09122622072D

 21 24  0  0  1  0  0  0  0  0999 V2000
   -1.6800    1.1900    0.0000 C   0  0  0  0  0  0  0  0  0  0  0  0
   -1.6800   -0.3100    0.0000 C   0  0  2  0  0  0  0  0  0  0  0  0
   -2.9800    0.4400    0.0000 C   0  0  0  0  0  0  0  0  0  0  0  0
   -4.2800   -0.3100    0.0000 C   0  0  0  0  0  0  0  0  0  0  0  0
   -4.2800   -1.8100    0.0000 C   0  0  0  0  0  0  0  0  0  0  0  0
   -5.5789   -2.5602    0.0000 O   0  0  0  0  0  0  0  0  0  0  0  0
   -2.9800   -2.5600    0.0000 C   0  0  0  0  0  0  0  0  0  0  0  0
   -1.6800   -1.8100    0.0000 C   0  0  2  0  0  0  0  0  0  0  0  0
   -0.3800   -2.5600    0.0000 C   0  0  0  0  0  0  0  0  0  0  0  0
    0.9200   -1.8100    0.0000 C   0  0  0  0  0  0  0  0  0  0  0  0
    0.9200   -0.3100    0.0000 C   0  0  2  0  0  0  0  0  0  0  0  0
   -0.3800    0.4400    0.0000 C   0  0  2  0  0  0  0  0  0  0  0  0
   -0.3800    1.9400    0.0000 C   0  0  0  0  0  0  0  0  0  0  0  0
    0.9200    2.6900    0.0000 C   0  0  0  0  0  0  0  0  0  0  0  0
    2.2200    1.9400    0.0000 C   0  0  2  0  0  0  0  0  0  0  0  0
    2.3787    3.4316    0.0000 C   0  0  0  0  0  0  0  0  0  0  0  0
    3.6500    2.4000    0.0000 C   0  0  0  0  0  0  0  0  0  0  0  0
    4.1153    3.8260    0.0000 O   0  0  0  0  0  0  0  0  0  0  0  0
    4.5300    1.1900    0.0000 C   0  0  0  0  0  0  0  0  0  0  0  0
    3.6500   -0.0200    0.0000 C   0  0  0  0  0  0  0  0  0  0  0  0
    2.2200    0.4400    0.0000 C   0  0  1  0  0  0  0  0  0  0  0  0
  2  1  1  1  0  0  0
  2  3  1  0  0  0  0
  3  4  2  0  0  0  0
  4  5  1  0  0  0  0
  5  6  2  0  0  0  0
  5  7  1  0  0  0  0
  8  7  1  1  0  0  0
  2  8  1  0  0  0  0
  8  9  1  0  0  0  0
  9 10  1  0  0  0  0
 11 10  1  6  0  0  0
 11 12  1  0  0  0  0
  2 12  1  0  0  0  0
 12 13  1  1  0  0  0
 13 14  1  0  0  0  0
 14 15  1  0  0  0  0
 15 16  1  1  0  0  0
 15 17  1  0  0  0  0
 17 18  2  0  0  0  0
 17 19  1  0  0  0  0
 19 20  1  0  0  0  0
 21 20  1  1  0  0  0
 11 21  1  0  0  0  0
 15 21  1  0  0  0  0
M  END
> <InChI>
InChI=1S/C19H26O2/c1-18-9-7-13(20)11-12(18)3-4-14-15-5-6-17(21)19(15,2)10-8-16(14)18/h7,9,12,14-16H,3-6,8,10-11H2,1-2H3/t12-,14-,15-,16-,18-,19-/m0/s1

> <InChIKey>
WJIQCDPCDVWDDE-WZNAKSSCSA-N

> <SMILES>
C[C@]12C=CC(=O)C[C@@H]1CC[C@@H]3[C@@H]2CC[C@]4(C)C(=O)CC[C@@H]34

> <Synonyms>


> <PUBCHEM_CID>


> <Molecular_formula>
C19H26O2

> <Major_Isotope_Mass>
286.193280072

> <ALogP>
3.0991999999999993

> <Lipinski_Violations>
0

> <Insecticide_Likeness_Violations>
0

> <Post_Em_Herbicide_Likeness_Violations>
0

> <Metabolite_ID>
BTM00001

> <Reaction>
Dehydrogenation of secondary alcohol

> <Reaction_ID>
BTMR0031

> <Enzyme(s)>
EC 1.1.1.1

> <Biosystem>
HUMAN

> <Precursor_ID>


> <Precursor_SMILES>
C[C@]12C=C[C@@H](O)C[C@@H]1CC[C@@H]3[C@@H]2CC[C@]4(C)C(=O)CC[C@@H]34

> <Precursor_InChI>
InChI=1S/C19H28O2/c1-18-9-7-13(20)11-12(18)3-4-14-15-5-6-17(21)19(15,2)10-8-16(14)18/h7,9,12-16,20H,3-6,8,10-11H2,1-2H3/t12-,13+,14-,15-,16-,18-,19-/m0/s1

> <Precursor_InChIKey>
DYMROBVXGSLPAY-HLUDHZFRSA-N

> <Precursor_ALogP>


> <Precursor_Major_Isotope_Mass>
288.2089

$$$$
BTM00002
  CDK     09122622072D

 22 25  0  0  1  0  0  0  0  0999 V2000
   -1.6800    1.1900    0.0000 C   0  0  0  0  0  0  0  0  0  0  0  0
   -1.6800   -0.3100    0.0000 C   0  0  2  0  0  0  0  0  0  0  0  0
   -2.9800    0.4400    0.0000 C   0  0  0  0  0  0  0  0  0  0  0  0
   -4.2800   -0.3100    0.0000 C   0  0  0  0  0  0  0  0  0  0  0  0
   -4.2800   -1.8100    0.0000 C   0  0  1  0  0  0  0  0  0  0  0  0
   -5.5789   -2.5602    0.0000 O   0  0  0  0  0  0  0  0  0  0  0  0
   -2.9800   -2.5600    0.0000 C   0  0  0  0  0  0  0  0  0  0  0  0
   -1.6800   -1.8100    0.0000 C   0  0  2  0  0  0  0  0  0  0  0  0
   -0.3800   -2.5600    0.0000 C   0  0  0  0  0  0  0  0  0  0  0  0
    0.9200   -1.8100    0.0000 C   0  0  0  0  0  0  0  0  0  0  0  0
    0.9200   -0.3100    0.0000 C   0  0  2  0  0  0  0  0  0  0  0  0
   -0.3800    0.4400    0.0000 C   0  0  2  0  0  0  0  0  0  0  0  0
   -0.3800    1.9400    0.0000 C   0  0  0  0  0  0  0  0  0  0  0  0
    0.9200    2.6900    0.0000 C   0  0  0  0  0  0  0  0  0  0  0  0
    2.2200    1.9400    0.0000 C   0  0  2  0  0  0  0  0  0  0  0  0
    2.3787    3.4316    0.0000 C   0  0  0  0  0  0  0  0  0  0  0  0
    3.6500    2.4000    0.0000 C   0  0  0  0  0  0  0  0  0  0  0  0
    4.1153    3.8260    0.0000 O   0  0  0  0  0  0  0  0  0  0  0  0
    4.5300    1.1900    0.0000 C   0  0  0  0  0  0  0  0  0  0  0  0
    3.6500   -0.0200    0.0000 C   0  0  0  0  0  0  0  0  0  0  0  0
    2.2200    0.4400    0.0000 C   0  0  1  0  0  0  0  0  0  0  0  0
   -1.6789    2.6902    0.0000 O   0  0  0  0  0  0  0  0  0  0  0  0
  2  1  1  1  0  0  0
  2  3  1  0  0  0  0
  3  4  2  0  0  0  0
  4  5  1  0  0  0  0
  5  6  1  6  0  0  0
  5  7  1  0  0  0  0
  8  7  1  1  0  0  0
  2  8  1  0  0  0  0
  8  9  1  0  0  0  0
  9 10  1  0  0  0  0
 11 10  1  6  0  0  0
 11 12  1  0  0  0  0
  2 12  1  0  0  0  0
 12 13  1  1  0  0  0
 13 14  1  0  0  0  0
 14 15  1  0  0  0  0
 15 16  1  1  0  0  0
 15 17  1  0  0  0  0
 17 18  2  0  0  0  0
 17 19  1  0  0  0  0
 19 20  1  0  0  0  0
 21 20  1  1  0  0  0
 11 21  1  0  0  0  0
 15 21  1  0  0  0  0
 22 13  1  0  0  0  0
M  END
> <InChI>
InChI=1S/C19H28O3/c1-18-8-7-12(20)9-11(18)3-4-13-14-5-6-16(22)19(14,2)10-15(21)17(13)18/h7-8,11-15,17,20-21H,3-6,9-10H2,1-2H3/t11-,12+,13-,14-,15?,17+,18-,19-/m0/s1

> <InChIKey>
PZRCFJFZJHACFR-WRAMVIBMSA-N

> <SMILES>
C[C@]12C=C[C@@H](O)C[C@@H]1CC[C@@H]3[C@@H]2C(C[C@]4(C)C(=O)CC[C@@H]34)O

> <Synonyms>


> <PUBCHEM_CID>


> <Molecular_formula>
C19H28O3

> <Major_Isotope_Mass>
304.20384475599997

> <ALogP>
1.9692999999999976

> <Lipinski_Violations>
0

> <Insecticide_Likeness_Violations>
0

> <Post_Em_Herbicide_Likeness_Violations>
0

> <Metabolite_ID>
BTM00002

> <Reaction>
11-beta-Hydroxylation of sterol

> <Reaction_ID>
BTMR0406

> <Enzyme(s)>
EC 1.14.15.4

> <Biosystem>
HUMAN

> <Precursor_ID>


> <Precursor_SMILES>
C[C@]12C=C[C@@H](O)C[C@@H]1CC[C@@H]3[C@@H]2CC[C@]4(C)C(=O)CC[C@@H]34

> <Precursor_InChI>
InChI=1S/C19H28O2/c1-18-9-7-13(20)11-12(18)3-4-14-15-5-6-17(21)19(15,2)10-8-16(14)18/h7,9,12-16,20H,3-6,8,10-11H2,1-2H3/t12-,13+,14-,15-,16-,18-,19-/m0/s1

> <Precursor_InChIKey>
DYMROBVXGSLPAY-HLUDHZFRSA-N

> <Precursor_ALogP>


> <Precursor_Major_Isotope_Mass>
288.2089

$$$$
BTM00003
  CDK     09122622072D

 33 37  0  0  1  0  0  0  0  0999 V2000
   -1.6300    0.9100    0.0000 C   0  0  0  0  0  0  0  0  0  0  0  0
   -1.6300   -0.5900    0.0000 C   0  0  2  0  0  0  0  0  0  0  0  0
   -2.9300    0.1600    0.0000 C   0  0  0  0  0  0  0  0  0  0  0  0
   -4.2300   -0.5900    0.0000 C   0  0  0  0  0  0  0  0  0  0  0  0
   -4.2300   -2.0900    0.0000 C   0  0  1  0  0  0  0  0  0  0  0  0
   -5.5289   -2.8402    0.0000 O   0  0  0  0  0  0  0  0  0  0  0  0
   -2.9300   -2.8400    0.0000 C   0  0  0  0  0  0  0  0  0  0  0  0
   -1.6300   -2.0900    0.0000 C   0  0  2  0  0  0  0  0  0  0  0  0
   -0.3300   -2.8400    0.0000 C   0  0  0  0  0  0  0  0  0  0  0  0
    0.9700   -2.0900    0.0000 C   0  0  0  0  0  0  0  0  0  0  0  0
    0.9700   -0.5900    0.0000 C   0  0  2  0  0  0  0  0  0  0  0  0
   -0.3300    0.1600    0.0000 C   0  0  2  0  0  0  0  0  0  0  0  0
   -0.3300    1.6600    0.0000 C   0  0  0  0  0  0  0  0  0  0  0  0
    0.9700    2.4100    0.0000 C   0  0  0  0  0  0  0  0  0  0  0  0
    2.2700    1.6600    0.0000 C   0  0  2  0  0  0  0  0  0  0  0  0
    2.4272    3.1517    0.0000 C   0  0  0  0  0  0  0  0  0  0  0  0
    3.6900    2.1200    0.0000 C   0  0  0  0  0  0  0  0  0  0  0  0
    4.1538    3.5465    0.0000 O   0  0  0  0  0  0  0  0  0  0  0  0
    4.5700    0.9100    0.0000 C   0  0  0  0  0  0  0  0  0  0  0  0
    3.6900   -0.3000    0.0000 C   0  0  0  0  0  0  0  0  0  0  0  0
    2.2700    0.1600    0.0000 C   0  0  1  0  0  0  0  0  0  0  0  0
   -8.1267   -4.3312    0.0000 O   0  0  0  0  0  0  0  0  0  0  0  0
   -8.1209   -2.8312    0.0000 C   0  0  0  0  0  0  0  0  0  0  0  0
   -9.4366   -2.0637    0.0000 C   0  0  0  0  0  0  0  0  0  0  0  0
  -10.7405   -2.8051    0.0000 O   0  0  0  0  0  0  0  0  0  0  0  0
   -9.4234   -0.5579    0.0000 C   0  0  0  0  0  0  0  0  0  0  0  0
  -10.7179    0.1999    0.0000 O   0  0  0  0  0  0  0  0  0  0  0  0
   -8.1306    0.1829    0.0000 C   0  0  0  0  0  0  0  0  0  0  0  0
   -6.8336   -0.5722    0.0000 O   0  0  0  0  0  0  0  0  0  0  0  0
   -6.8281   -2.0904    0.0000 C   0  0  0  0  0  0  0  0  0  0  0  0
   -8.1254    1.6829    0.0000 C   0  0  0  0  0  0  0  0  0  0  0  0
   -9.4219    2.4373    0.0000 O   0  0  0  0  0  0  0  0  0  0  0  0
   -6.8238    2.4284    0.0000 O   0  0  0  0  0  0  0  0  0  0  0  0
  2  1  1  1  0  0  0
  2  3  1  0  0  0  0
  3  4  2  0  0  0  0
  4  5  1  0  0  0  0
  5  6  1  6  0  0  0
  5  7  1  0  0  0  0
  8  7  1  1  0  0  0
  2  8  1  0  0  0  0
  8  9  1  0  0  0  0
  9 10  1  0  0  0  0
 11 10  1  6  0  0  0
 11 12  1  0  0  0  0
  2 12  1  0  0  0  0
 12 13  1  1  0  0  0
 13 14  1  0  0  0  0
 14 15  1  0  0  0  0
 15 16  1  1  0  0  0
 15 17  1  0  0  0  0
 17 18  2  0  0  0  0
 17 19  1  0  0  0  0
 19 20  1  0  0  0  0
 21 20  1  1  0  0  0
 11 21  1  0  0  0  0
 15 21  1  0  0  0  0
 22 23  1  0  0  0  0
 23 24  1  0  0  0  0
 24 25  1  0  0  0  0
 24 26  1  0  0  0  0
 26 27  1  0  0  0  0
 26 28  1  0  0  0  0
 28 29  1  0  0  0  0
 29 30  1  0  0  0  0
 23 30  1  0  0  0  0
 30  6  1  0  0  0  0
 28 31  1  0  0  0  0
 31 32  1  0  0  0  0
 31 33  2  0  0  0  0
M  END
> <InChI>
InChI=1S/C25H36O8/c1-24-9-7-13(32-23-20(29)18(27)19(28)21(33-23)22(30)31)11-12(24)3-4-14-15-5-6-17(26)25(15,2)10-8-16(14)24/h7,9,12-16,18-21,23,27-29H,3-6,8,10-11H2,1-2H3,(H,30,31)/t12-,13+,14-,15-,16-,18?,19?,20?,21?,23?,24-,25-/m0/s1

> <InChIKey>
WQDGWVSNXGPUIB-MYESRGNHSA-N

> <SMILES>
C[C@]12C=C[C@@H](OC3OC(C(C(C3O)O)O)C(O)=O)C[C@@H]1CC[C@@H]4[C@@H]2CC[C@]5(C)C(=O)CC[C@@H]45

> <Synonyms>


> <PUBCHEM_CID>


> <Molecular_formula>
C25H36O8

> <Major_Isotope_Mass>
464.241018112

> <ALogP>
1.6006999999999987

> <Lipinski_Violations>
0

> <Insecticide_Likeness_Violations>
1

> <Post_Em_Herbicide_Likeness_Violations>
1

> <Metabolite_ID>
BTM00003

> <Reaction>
3-OH-Glucuronidation of sterol

> <Reaction_ID>
BTMR0157

> <Enzyme(s)>
EC 2.4.1.17

> <Biosystem>
HUMAN

> <Precursor_ID>


> <Precursor_SMILES>
C[C@]12C=C[C@@H](O)C[C@@H]1CC[C@@H]3[C@@H]2CC[C@]4(C)C(=O)CC[C@@H]34

> <Precursor_InChI>
InChI=1S/C19H28O2/c1-18-9-7-13(20)11-12(18)3-4-14-15-5-6-17(21)19(15,2)10-8-16(14)18/h7,9,12-16,20H,3-6,8,10-11H2,1-2H3/t12-,13+,14-,15-,16-,18-,19-/m0/s1

> <Precursor_InChIKey>
DYMROBVXGSLPAY-HLUDHZFRSA-N

> <Precursor_ALogP>


> <Precursor_Major_Isotope_Mass>
288.2089

$$$$
BTM00004
  CDK     09122622072D

 25 28  0  0  1  0  0  0  0  0999 V2000
   -1.6300    0.9100    0.0000 C   0  0  0  0  0  0  0  0  0  0  0  0
   -1.6300   -0.5900    0.0000 C   0  0  2  0  0  0  0  0  0  0  0  0
   -2.9300    0.1600    0.0000 C   0  0  0  0  0  0  0  0  0  0  0  0
   -4.2300   -0.5900    0.0000 C   0  0  0  0  0  0  0  0  0  0  0  0
   -4.2300   -2.0900    0.0000 C   0  0  1  0  0  0  0  0  0  0  0  0
   -5.5289   -2.8402    0.0000 O   0  0  0  0  0  0  0  0  0  0  0  0
   -2.9300   -2.8400    0.0000 C   0  0  0  0  0  0  0  0  0  0  0  0
   -1.6300   -2.0900    0.0000 C   0  0  2  0  0  0  0  0  0  0  0  0
   -0.3300   -2.8400    0.0000 C   0  0  0  0  0  0  0  0  0  0  0  0
    0.9700   -2.0900    0.0000 C   0  0  0  0  0  0  0  0  0  0  0  0
    0.9700   -0.5900    0.0000 C   0  0  2  0  0  0  0  0  0  0  0  0
   -0.3300    0.1600    0.0000 C   0  0  2  0  0  0  0  0  0  0  0  0
   -0.3300    1.6600    0.0000 C   0  0  0  0  0  0  0  0  0  0  0  0
    0.9700    2.4100    0.0000 C   0  0  0  0  0  0  0  0  0  0  0  0
    2.2700    1.6600    0.0000 C   0  0  2  0  0  0  0  0  0  0  0  0
    2.4272    3.1517    0.0000 C   0  0  0  0  0  0  0  0  0  0  0  0
    3.6900    2.1200    0.0000 C   0  0  0  0  0  0  0  0  0  0  0  0
    4.1538    3.5465    0.0000 O   0  0  0  0  0  0  0  0  0  0  0  0
    4.5700    0.9100    0.0000 C   0  0  0  0  0  0  0  0  0  0  0  0
    3.6900   -0.3000    0.0000 C   0  0  0  0  0  0  0  0  0  0  0  0
    2.2700    0.1600    0.0000 C   0  0  1  0  0  0  0  0  0  0  0  0
   -6.0783   -0.7913    0.0000 O   0  0  0  0  0  0  0  0  0  0  0  0
   -6.8281   -2.0904    0.0000 S   0  0  0  0  0  0  0  0  0  0  0  0
   -8.1272   -1.3406    0.0000 O   0  0  0  0  0  0  0  0  0  0  0  0
   -7.5779   -3.3896    0.0000 O   0  0  0  0  0  0  0  0  0  0  0  0
  2  1  1  1  0  0  0
  2  3  1  0  0  0  0
  3  4  2  0  0  0  0
  4  5  1  0  0  0  0
  5  6  1  6  0  0  0
  5  7  1  0  0  0  0
  8  7  1  1  0  0  0
  2  8  1  0  0  0  0
  8  9  1  0  0  0  0
  9 10  1  0  0  0  0
 11 10  1  6  0  0  0
 11 12  1  0  0  0  0
  2 12  1  0  0  0  0
 12 13  1  1  0  0  0
 13 14  1  0  0  0  0
 14 15  1  0  0  0  0
 15 16  1  1  0  0  0
 15 17  1  0  0  0  0
 17 18  2  0  0  0  0
 17 19  1  0  0  0  0
 19 20  1  0  0  0  0
 21 20  1  1  0  0  0
 11 21  1  0  0  0  0
 15 21  1  0  0  0  0
 22 23  1  0  0  0  0
 23 24  2  0  0  0  0
 23 25  2  0  0  0  0
 23  6  1  0  0  0  0
M  END
> <InChI>
InChI=1S/C19H28O5S/c1-18-9-7-13(24-25(21,22)23)11-12(18)3-4-14-15-5-6-17(20)19(15,2)10-8-16(14)18/h7,9,12-16H,3-6,8,10-11H2,1-2H3,(H,21,22,23)/t12-,13+,14-,15-,16-,18-,19-/m0/s1

> <InChIKey>
RJBYQKIFZXIDEL-HLUDHZFRSA-N

> <SMILES>
C[C@]12C=C[C@@H](OS(O)(=O)=O)C[C@@H]1CC[C@@H]3[C@@H]2CC[C@]4(C)C(=O)CC[C@@H]34

> <Synonyms>


> <PUBCHEM_CID>


> <Molecular_formula>
C19H28O5S

> <Major_Isotope_Mass>
368.16574499599994

> <ALogP>
2.559399999999998

> <Lipinski_Violations>
0

> <Insecticide_Likeness_Violations>
0

> <Post_Em_Herbicide_Likeness_Violations>
0

> <Metabolite_ID>
BTM00004

> <Reaction>
3-OH-Sulfation of sterol

> <Reaction_ID>
BTMR0503

> <Enzyme(s)>
EC 2.8.2.2

> <Biosystem>
HUMAN

> <Precursor_ID>


> <Precursor_SMILES>
C[C@]12C=C[C@@H](O)C[C@@H]1CC[C@@H]3[C@@H]2CC[C@]4(C)C(=O)CC[C@@H]34

> <Precursor_InChI>
InChI=1S/C19H28O2/c1-18-9-7-13(20)11-12(18)3-4-14-15-5-6-17(21)19(15,2)10-8-16(14)18/h7,9,12-16,20H,3-6,8,10-11H2,1-2H3/t12-,13+,14-,15-,16-,18-,19-/m0/s1

> <Precursor_InChIKey>
DYMROBVXGSLPAY-HLUDHZFRSA-N

> <Precursor_ALogP>


> <Precursor_Major_Isotope_Mass>
288.2089

$$$$
BTM00005
  CDK     09122622072D

 22 25  0  0  1  0  0  0  0  0999 V2000
   -1.9175    0.9000    0.0000 C   0  0  0  0  0  0  0  0  0  0  0  0
   -1.9200   -0.6000    0.0000 C   0  0  2  0  0  0  0  0  0  0  0  0
   -3.2100    0.1200    0.0000 C   0  0  0  0  0  0  0  0  0  0  0  0
   -4.5200   -0.6000    0.0000 C   0  0  0  0  0  0  0  0  0  0  0  0
   -4.5200   -2.1200    0.0000 C   0  0  1  0  0  0  0  0  0  0  0  0
   -5.8177   -2.8724    0.0000 O   0  0  0  0  0  0  0  0  0  0  0  0
   -3.2100   -2.8700    0.0000 C   0  0  0  0  0  0  0  0  0  0  0  0
   -1.9200   -2.1200    0.0000 C   0  0  2  0  0  0  0  0  0  0  0  0
   -0.6200   -2.8700    0.0000 C   0  0  0  0  0  0  0  0  0  0  0  0
    0.7100   -2.1200    0.0000 C   0  0  0  0  0  0  0  0  0  0  0  0
    0.7100   -0.6000    0.0000 C   0  0  2  0  0  0  0  0  0  0  0  0
   -0.6200    0.1200    0.0000 C   0  0  2  0  0  0  0  0  0  0  0  0
   -0.6200    1.5900    0.0000 C   0  0  0  0  0  0  0  0  0  0  0  0
    0.7100    2.3500    0.0000 C   0  0  0  0  0  0  0  0  0  0  0  0
    1.9800    1.5900    0.0000 C   0  0  2  0  0  0  0  0  0  0  0  0
    2.1507    3.0803    0.0000 C   0  0  0  0  0  0  0  0  0  0  0  0
    3.4100    2.0500    0.0000 C   0  0  0  0  0  0  0  0  0  0  0  0
    3.8870    3.4721    0.0000 O   0  0  0  0  0  0  0  0  0  0  0  0
    4.2600    0.8400    0.0000 C   0  0  0  0  0  0  0  0  0  0  0  0
    3.4100   -0.3500    0.0000 C   0  0  0  0  0  0  0  0  0  0  0  0
    1.9800    0.1200    0.0000 C   0  0  1  0  0  0  0  0  0  0  0  0
    5.7600    0.8341    0.0000 O   0  0  0  0  0  0  0  0  0  0  0  0
  2  1  1  1  0  0  0
  2  3  1  0  0  0  0
  3  4  2  0  0  0  0
  4  5  1  0  0  0  0
  5  6  1  6  0  0  0
  5  7  1  0  0  0  0
  8  7  1  1  0  0  0
  2  8  1  0  0  0  0
  8  9  1  0  0  0  0
  9 10  1  0  0  0  0
 11 10  1  6  0  0  0
 11 12  1  0  0  0  0
  2 12  1  0  0  0  0
 12 13  1  1  0  0  0
 13 14  1  0  0  0  0
 14 15  1  0  0  0  0
 15 16  1  1  0  0  0
 15 17  1  0  0  0  0
 17 18  2  0  0  0  0
 17 19  1  0  0  0  0
 19 20  1  0  0  0  0
 21 20  1  1  0  0  0
 11 21  1  0  0  0  0
 15 21  1  0  0  0  0
 22 19  1  0  0  0  0
M  END
> <InChI>
InChI=1S/C19H28O3/c1-18-7-5-12(20)9-11(18)3-4-13-14(18)6-8-19(2)15(13)10-16(21)17(19)22/h5,7,11-16,20-21H,3-4,6,8-10H2,1-2H3/t11-,12+,13+,14-,15-,16?,18-,19-/m0/s1

> <InChIKey>
QWAPLHLIKZHOOA-CTOPTIBHSA-N

> <SMILES>
C[C@]12C=C[C@@H](O)C[C@@H]1CC[C@@H]3[C@@H]2CC[C@]4(C)C(=O)C(C[C@@H]34)O

> <Synonyms>


> <PUBCHEM_CID>


> <Molecular_formula>
C19H28O3

> <Major_Isotope_Mass>
304.20384475599997

> <ALogP>
2.458199999999997

> <Lipinski_Violations>
0

> <Insecticide_Likeness_Violations>
0

> <Post_Em_Herbicide_Likeness_Violations>
0

> <Metabolite_ID>
BTM00005

> <Reaction>
16-Hydroxylation of sterol

> <Reaction_ID>
BTMR0407

> <Enzyme(s)>
CYP1A2
CYP2A6
CYP2B6
CYP2C8
CYP2C9
CYP2C19
CYP2D6
CYP2E1
CYP3A4

> <Biosystem>
HUMAN

> <Precursor_ID>


> <Precursor_SMILES>
C[C@]12C=C[C@@H](O)C[C@@H]1CC[C@@H]3[C@@H]2CC[C@]4(C)C(=O)CC[C@@H]34

> <Precursor_InChI>
InChI=1S/C19H28O2/c1-18-9-7-13(20)11-12(18)3-4-14-15-5-6-17(21)19(15,2)10-8-16(14)18/h7,9,12-16,20H,3-6,8,10-11H2,1-2H3/t12-,13+,14-,15-,16-,18-,19-/m0/s1

> <Precursor_InChIKey>
DYMROBVXGSLPAY-HLUDHZFRSA-N

> <Precursor_ALogP>


> <Precursor_Major_Isotope_Mass>
288.2089

$$$$
BTM00006
  CDK     09122622072D

 22 25  0  0  1  0  0  0  0  0999 V2000
   -1.6800    1.1900    0.0000 C   0  0  0  0  0  0  0  0  0  0  0  0
   -1.6800   -0.3100    0.0000 C   0  0  2  0  0  0  0  0  0  0  0  0
   -2.9800    0.4400    0.0000 C   0  0  0  0  0  0  0  0  0  0  0  0
   -4.2800   -0.3100    0.0000 C   0  0  0  0  0  0  0  0  0  0  0  0
   -4.2800   -1.8100    0.0000 C   0  0  1  0  0  0  0  0  0  0  0  0
   -5.5789   -2.5602    0.0000 O   0  0  0  0  0  0  0  0  0  0  0  0
   -2.9800   -2.5600    0.0000 C   0  0  0  0  0  0  0  0  0  0  0  0
   -1.6800   -1.8100    0.0000 C   0  0  2  0  0  0  0  0  0  0  0  0
   -0.3800   -2.5600    0.0000 C   0  0  0  0  0  0  0  0  0  0  0  0
    0.9200   -1.8100    0.0000 C   0  0  0  0  0  0  0  0  0  0  0  0
    0.9200   -0.3100    0.0000 C   0  0  2  0  0  0  0  0  0  0  0  0
   -0.3800    0.4400    0.0000 C   0  0  2  0  0  0  0  0  0  0  0  0
   -0.3800    1.9400    0.0000 C   0  0  0  0  0  0  0  0  0  0  0  0
    0.9200    2.6900    0.0000 C   0  0  0  0  0  0  0  0  0  0  0  0
    2.2200    1.9400    0.0000 C   0  0  2  0  0  0  0  0  0  0  0  0
    2.3787    3.4316    0.0000 C   0  0  0  0  0  0  0  0  0  0  0  0
    3.6500    2.4000    0.0000 C   0  0  0  0  0  0  0  0  0  0  0  0
    4.1153    3.8260    0.0000 O   0  0  0  0  0  0  0  0  0  0  0  0
    4.5300    1.1900    0.0000 C   0  0  0  0  0  0  0  0  0  0  0  0
    3.6500   -0.0200    0.0000 C   0  0  0  0  0  0  0  0  0  0  0  0
    2.2200    0.4400    0.0000 C   0  0  1  0  0  0  0  0  0  0  0  0
   -5.5789    0.4402    0.0000 O   0  0  0  0  0  0  0  0  0  0  0  0
  2  1  1  1  0  0  0
  2  3  1  0  0  0  0
  3  4  2  0  0  0  0
  4  5  1  0  0  0  0
  5  6  1  6  0  0  0
  5  7  1  0  0  0  0
  8  7  1  1  0  0  0
  2  8  1  0  0  0  0
  8  9  1  0  0  0  0
  9 10  1  0  0  0  0
 11 10  1  6  0  0  0
 11 12  1  0  0  0  0
  2 12  1  0  0  0  0
 12 13  1  1  0  0  0
 13 14  1  0  0  0  0
 14 15  1  0  0  0  0
 15 16  1  1  0  0  0
 15 17  1  0  0  0  0
 17 18  2  0  0  0  0
 17 19  1  0  0  0  0
 19 20  1  0  0  0  0
 21 20  1  1  0  0  0
 11 21  1  0  0  0  0
 15 21  1  0  0  0  0
 22  4  1  0  0  0  0
M  END
> <InChI>
InChI=1S/C19H28O3/c1-18-8-7-14-12(13(18)5-6-17(18)22)4-3-11-9-15(20)16(21)10-19(11,14)2/h10-15,20-21H,3-9H2,1-2H3/t11-,12-,13-,14-,15-,18-,19-/m0/s1

> <InChIKey>
GGHHZMHJVSZLBJ-RAIGWLFXSA-N

> <SMILES>
C[C@]12C=C([C@@H](O)C[C@@H]1CC[C@@H]3[C@@H]2CC[C@]4(C)C(=O)CC[C@@H]34)O

> <Synonyms>


> <PUBCHEM_CID>


> <Molecular_formula>
C19H28O3

> <Major_Isotope_Mass>
304.20384475599997

> <ALogP>
2.5755999999999992

> <Lipinski_Violations>
0

> <Insecticide_Likeness_Violations>
0

> <Post_Em_Herbicide_Likeness_Violations>
0

> <Metabolite_ID>
BTM00006

> <Reaction>
2-Hydroxylation of sterol

> <Reaction_ID>
BTMR0398

> <Enzyme(s)>
CYP1A2
CYP2C19
CYP3A4

> <Biosystem>
HUMAN

> <Precursor_ID>


> <Precursor_SMILES>
C[C@]12C=C[C@@H](O)C[C@@H]1CC[C@@H]3[C@@H]2CC[C@]4(C)C(=O)CC[C@@H]34

> <Precursor_InChI>
InChI=1S/C19H28O2/c1-18-9-7-13(20)11-12(18)3-4-14-15-5-6-17(21)19(15,2)10-8-16(14)18/h7,9,12-16,20H,3-6,8,10-11H2,1-2H3/t12-,13+,14-,15-,16-,18-,19-/m0/s1

> <Precursor_InChIKey>
DYMROBVXGSLPAY-HLUDHZFRSA-N

> <Precursor_ALogP>


> <Precursor_Major_Isotope_Mass>
288.2089

$$$$
BTM00007
  CDK     09122622072D

 22 25  0  0  1  0  0  0  0  0999 V2000
   -1.6800    1.1900    0.0000 C   0  0  0  0  0  0  0  0  0  0  0  0
   -1.6800   -0.3100    0.0000 C   0  0  2  0  0  0  0  0  0  0  0  0
   -2.9800    0.4400    0.0000 C   0  0  0  0  0  0  0  0  0  0  0  0
   -4.2800   -0.3100    0.0000 C   0  0  0  0  0  0  0  0  0  0  0  0
   -4.2800   -1.8100    0.0000 C   0  0  1  0  0  0  0  0  0  0  0  0
   -5.5789   -2.5602    0.0000 O   0  0  0  0  0  0  0  0  0  0  0  0
   -2.9800   -2.5600    0.0000 C   0  0  0  0  0  0  0  0  0  0  0  0
   -1.6800   -1.8100    0.0000 C   0  0  2  0  0  0  0  0  0  0  0  0
   -0.3800   -2.5600    0.0000 C   0  0  0  0  0  0  0  0  0  0  0  0
    0.9200   -1.8100    0.0000 C   0  0  0  0  0  0  0  0  0  0  0  0
    0.9200   -0.3100    0.0000 C   0  0  2  0  0  0  0  0  0  0  0  0
   -0.3800    0.4400    0.0000 C   0  0  2  0  0  0  0  0  0  0  0  0
   -0.3800    1.9400    0.0000 C   0  0  0  0  0  0  0  0  0  0  0  0
    0.9200    2.6900    0.0000 C   0  0  0  0  0  0  0  0  0  0  0  0
    2.2200    1.9400    0.0000 C   0  0  2  0  0  0  0  0  0  0  0  0
    2.3787    3.4316    0.0000 C   0  0  0  0  0  0  0  0  0  0  0  0
    3.6500    2.4000    0.0000 C   0  0  0  0  0  0  0  0  0  0  0  0
    4.1153    3.8260    0.0000 O   0  0  0  0  0  0  0  0  0  0  0  0
    4.5300    1.1900    0.0000 C   0  0  0  0  0  0  0  0  0  0  0  0
    3.6500   -0.0200    0.0000 C   0  0  0  0  0  0  0  0  0  0  0  0
    2.2200    0.4400    0.0000 C   0  0  1  0  0  0  0  0  0  0  0  0
   -2.9800   -4.0600    0.0000 O   0  0  0  0  0  0  0  0  0  0  0  0
  2  1  1  1  0  0  0
  2  3  1  0  0  0  0
  3  4  2  0  0  0  0
  4  5  1  0  0  0  0
  5  6  1  6  0  0  0
  5  7  1  0  0  0  0
  7  8  1  0  0  0  0
  2  8  1  0  0  0  0
  8  9  1  1  0  0  0
  9 10  1  0  0  0  0
 11 10  1  6  0  0  0
 11 12  1  0  0  0  0
  2 12  1  0  0  0  0
 12 13  1  1  0  0  0
 13 14  1  0  0  0  0
 14 15  1  0  0  0  0
 15 16  1  1  0  0  0
 15 17  1  0  0  0  0
 17 18  2  0  0  0  0
 17 19  1  0  0  0  0
 19 20  1  0  0  0  0
 21 20  1  1  0  0  0
 11 21  1  0  0  0  0
 15 21  1  0  0  0  0
 22  7  1  0  0  0  0
M  END
> <InChI>
InChI=1S/C19H28O3/c1-18-10-8-15(20)17(22)14(18)4-3-11-12-5-6-16(21)19(12,2)9-7-13(11)18/h8,10-15,17,20,22H,3-7,9H2,1-2H3/t11-,12-,13-,14-,15+,17?,18+,19-/m0/s1

> <InChIKey>
QVPFARQJNYAYPQ-AAYHQQARSA-N

> <SMILES>
C[C@]12C=C[C@@H](O)C([C@@H]1CC[C@@H]3[C@@H]2CC[C@]4(C)C(=O)CC[C@@H]34)O

> <Synonyms>


> <PUBCHEM_CID>


> <Molecular_formula>
C19H28O3

> <Major_Isotope_Mass>
304.20384475599997

> <ALogP>
2.239299999999997

> <Lipinski_Violations>
0

> <Insecticide_Likeness_Violations>
0

> <Post_Em_Herbicide_Likeness_Violations>
0

> <Metabolite_ID>
BTM00007

> <Reaction>
4-Hydroxylation of sterol

> <Reaction_ID>
BTMR0400

> <Enzyme(s)>
CYP1A2
CYP3A4

> <Biosystem>
HUMAN

> <Precursor_ID>


> <Precursor_SMILES>
C[C@]12C=C[C@@H](O)C[C@@H]1CC[C@@H]3[C@@H]2CC[C@]4(C)C(=O)CC[C@@H]34

> <Precursor_InChI>
InChI=1S/C19H28O2/c1-18-9-7-13(20)11-12(18)3-4-14-15-5-6-17(21)19(15,2)10-8-16(14)18/h7,9,12-16,20H,3-6,8,10-11H2,1-2H3/t12-,13+,14-,15-,16-,18-,19-/m0/s1

> <Precursor_InChIKey>
DYMROBVXGSLPAY-HLUDHZFRSA-N

> <Precursor_ALogP>


> <Precursor_Major_Isotope_Mass>
288.2089

$$$$
BTM00008
  CDK     09122622072D

 22 26  0  0  1  0  0  0  0  0999 V2000
   -1.4400    1.1200    0.0000 C   0  0  0  0  0  0  0  0  0  0  0  0
   -1.4400   -0.3800    0.0000 C   0  0  2  0  0  0  0  0  0  0  0  0
   -2.7400    0.3800    0.0000 C   0  0  0  0  0  0  0  0  0  0  0  0
   -4.0400   -0.3800    0.0000 C   0  0  0  0  0  0  0  0  0  0  0  0
   -4.0400   -1.8800    0.0000 C   0  0  1  0  0  0  0  0  0  0  0  0
   -5.3367   -2.6340    0.0000 O   0  0  0  0  0  0  0  0  0  0  0  0
   -2.7400   -2.6200    0.0000 C   0  0  0  0  0  0  0  0  0  0  0  0
   -1.4400   -1.8800    0.0000 C   0  0  2  0  0  0  0  0  0  0  0  0
   -0.1400   -2.6200    0.0000 C   0  0  0  0  0  0  0  0  0  0  0  0
    1.1600   -1.8800    0.0000 C   0  0  0  0  0  0  0  0  0  0  0  0
    1.1600   -0.3800    0.0000 C   0  0  2  0  0  0  0  0  0  0  0  0
   -0.1400    0.3800    0.0000 C   0  0  2  0  0  0  0  0  0  0  0  0
   -0.1400    1.8800    0.0000 C   0  0  0  0  0  0  0  0  0  0  0  0
    1.1600    2.6200    0.0000 C   0  0  0  0  0  0  0  0  0  0  0  0
    2.4600    1.8800    0.0000 C   0  0  2  0  0  0  0  0  0  0  0  0
    2.6129    3.3722    0.0000 C   0  0  0  0  0  0  0  0  0  0  0  0
    3.8800    2.3400    0.0000 C   0  0  0  0  0  0  0  0  0  0  0  0
    4.3466    3.7656    0.0000 O   0  0  0  0  0  0  0  0  0  0  0  0
    4.7600    1.1200    0.0000 C   0  0  0  0  0  0  0  0  0  0  0  0
    3.8800   -0.0900    0.0000 C   0  0  0  0  0  0  0  0  0  0  0  0
    2.4600    0.3800    0.0000 C   0  0  1  0  0  0  0  0  0  0  0  0
   -4.0400    1.1200    0.0000 O   0  0  0  0  0  0  0  0  0  0  0  0
  2  1  1  1  0  0  0
  2  3  1  0  0  0  0
  3  4  1  0  0  0  0
  4  5  1  0  0  0  0
  5  6  1  6  0  0  0
  5  7  1  0  0  0  0
  8  7  1  1  0  0  0
  2  8  1  0  0  0  0
  8  9  1  0  0  0  0
  9 10  1  0  0  0  0
 11 10  1  6  0  0  0
 11 12  1  0  0  0  0
  2 12  1  0  0  0  0
 12 13  1  1  0  0  0
 13 14  1  0  0  0  0
 14 15  1  0  0  0  0
 15 16  1  1  0  0  0
 15 17  1  0  0  0  0
 17 18  2  0  0  0  0
 17 19  1  0  0  0  0
 19 20  1  0  0  0  0
 21 20  1  1  0  0  0
 11 21  1  0  0  0  0
 15 21  1  0  0  0  0
  4 22  1  0  0  0  0
 22  3  1  0  0  0  0
M  END
> <InChI>
InChI=1S/C19H28O3/c1-18-8-7-13-11(12(18)5-6-15(18)21)4-3-10-9-14(20)16-17(22-16)19(10,13)2/h10-14,16-17,20H,3-9H2,1-2H3/t10-,11-,12-,13-,14-,16?,17?,18-,19-/m0/s1

> <InChIKey>
DEGASOBNDADWRP-RTUKENBKSA-N

> <SMILES>
C[C@]12C3C([C@@H](O)C[C@@H]1CC[C@@H]4[C@@H]2CC[C@]5(C)C(=O)CC[C@@H]45)O3

> <Synonyms>


> <PUBCHEM_CID>


> <Molecular_formula>
C19H28O3

> <Major_Isotope_Mass>
304.20384475599997

> <ALogP>
2.416

> <Lipinski_Violations>
0

> <Insecticide_Likeness_Violations>
0

> <Post_Em_Herbicide_Likeness_Violations>
0

> <Metabolite_ID>
BTM00008

> <Reaction>
Epoxidation of alkene

> <Reaction_ID>
BTMR0110

> <Enzyme(s)>
CYP1A2
CYP2B6
CYP2B6
CYP2C8
CYP2C9
CYP2C19
CYP2D6
CYP2E1
CYP3A4

> <Biosystem>
HUMAN

> <Precursor_ID>


> <Precursor_SMILES>
C[C@]12C=C[C@@H](O)C[C@@H]1CC[C@@H]3[C@@H]2CC[C@]4(C)C(=O)CC[C@@H]34

> <Precursor_InChI>
InChI=1S/C19H28O2/c1-18-9-7-13(20)11-12(18)3-4-14-15-5-6-17(21)19(15,2)10-8-16(14)18/h7,9,12-16,20H,3-6,8,10-11H2,1-2H3/t12-,13+,14-,15-,16-,18-,19-/m0/s1

> <Precursor_InChIKey>
DYMROBVXGSLPAY-HLUDHZFRSA-N

> <Precursor_ALogP>


> <Precursor_Major_Isotope_Mass>
288.2089

$$$$
BTM00009
  CDK     09122622072D

 22 25  0  0  1  0  0  0  0  0999 V2000
   -1.6800    1.1900    0.0000 C   0  0  0  0  0  0  0  0  0  0  0  0
   -1.6800   -0.3100    0.0000 C   0  0  2  0  0  0  0  0  0  0  0  0
   -2.9800    0.4400    0.0000 C   0  0  0  0  0  0  0  0  0  0  0  0
   -4.2800   -0.3100    0.0000 C   0  0  0  0  0  0  0  0  0  0  0  0
   -4.2800   -1.8100    0.0000 C   0  0  1  0  0  0  0  0  0  0  0  0
   -5.5789   -2.5602    0.0000 O   0  0  0  0  0  0  0  0  0  0  0  0
   -2.9800   -2.5600    0.0000 C   0  0  0  0  0  0  0  0  0  0  0  0
   -1.6800   -1.8100    0.0000 C   0  0  2  0  0  0  0  0  0  0  0  0
   -0.3800   -2.5600    0.0000 C   0  0  0  0  0  0  0  0  0  0  0  0
    0.9200   -1.8100    0.0000 C   0  0  0  0  0  0  0  0  0  0  0  0
    0.9200   -0.3100    0.0000 C   0  0  2  0  0  0  0  0  0  0  0  0
   -0.3800    0.4400    0.0000 C   0  0  2  0  0  0  0  0  0  0  0  0
   -0.3800    1.9400    0.0000 C   0  0  0  0  0  0  0  0  0  0  0  0
    0.9200    2.6900    0.0000 C   0  0  0  0  0  0  0  0  0  0  0  0
    2.2200    1.9400    0.0000 C   0  0  2  0  0  0  0  0  0  0  0  0
    2.3787    3.4316    0.0000 C   0  0  0  0  0  0  0  0  0  0  0  0
    3.6500    2.4000    0.0000 C   0  0  0  0  0  0  0  0  0  0  0  0
    4.1153    3.8260    0.0000 O   0  0  0  0  0  0  0  0  0  0  0  0
    4.5300    1.1900    0.0000 C   0  0  0  0  0  0  0  0  0  0  0  0
    3.6500   -0.0200    0.0000 C   0  0  0  0  0  0  0  0  0  0  0  0
    2.2200    0.4400    0.0000 C   0  0  1  0  0  0  0  0  0  0  0  0
   -0.3800   -4.0600    0.0000 O   0  0  0  0  0  0  0  0  0  0  0  0
  2  1  1  1  0  0  0
  2  3  1  0  0  0  0
  3  4  2  0  0  0  0
  4  5  1  0  0  0  0
  5  6  1  6  0  0  0
  5  7  1  0  0  0  0
  8  7  1  1  0  0  0
  2  8  1  0  0  0  0
  8  9  1  0  0  0  0
  9 10  1  0  0  0  0
 11 10  1  6  0  0  0
 11 12  1  0  0  0  0
  2 12  1  0  0  0  0
 12 13  1  1  0  0  0
 13 14  1  0  0  0  0
 14 15  1  0  0  0  0
 15 16  1  1  0  0  0
 15 17  1  0  0  0  0
 17 18  2  0  0  0  0
 17 19  1  0  0  0  0
 19 20  1  0  0  0  0
 21 20  1  1  0  0  0
 11 21  1  0  0  0  0
 15 21  1  0  0  0  0
 22  9  1  0  0  0  0
M  END
> <InChI>
InChI=1S/C19H28O3/c1-18-7-5-11(20)9-15(18)16(21)10-12-13-3-4-17(22)19(13,2)8-6-14(12)18/h5,7,11-16,20-21H,3-4,6,8-10H2,1-2H3/t11-,12+,13+,14+,15-,16?,18-,19+/m1/s1

> <InChIKey>
OJIKSPFPBIQTAQ-AMSWJPAJSA-N

> <SMILES>
C[C@]12C=C[C@@H](O)C[C@@H]1C(C[C@@H]3[C@@H]2CC[C@]4(C)C(=O)CC[C@@H]34)O

> <Synonyms>


> <PUBCHEM_CID>


> <Molecular_formula>
C19H28O3

> <Major_Isotope_Mass>
304.20384475599997

> <ALogP>
1.9692999999999976

> <Lipinski_Violations>
0

> <Insecticide_Likeness_Violations>
0

> <Post_Em_Herbicide_Likeness_Violations>
0

> <Metabolite_ID>
BTM00009

> <Reaction>
6-Hydroxylation of sterol

> <Reaction_ID>
BTMR0402

> <Enzyme(s)>
CYP2A6
CYP2B6
CYP2C8
CYP2C9
CYP2C19
CYP2D6
CYP3A4

> <Biosystem>
HUMAN

> <Precursor_ID>


> <Precursor_SMILES>
C[C@]12C=C[C@@H](O)C[C@@H]1CC[C@@H]3[C@@H]2CC[C@]4(C)C(=O)CC[C@@H]34

> <Precursor_InChI>
InChI=1S/C19H28O2/c1-18-9-7-13(20)11-12(18)3-4-14-15-5-6-17(21)19(15,2)10-8-16(14)18/h7,9,12-16,20H,3-6,8,10-11H2,1-2H3/t12-,13+,14-,15-,16-,18-,19-/m0/s1

> <Precursor_InChIKey>
DYMROBVXGSLPAY-HLUDHZFRSA-N

> <Precursor_ALogP>


> <Precursor_Major_Isotope_Mass>
288.2089

$$$$
BTM00010
  CDK     09122622072D

 22 25  0  0  1  0  0  0  0  0999 V2000
   -1.6300    0.9100    0.0000 C   0  0  0  0  0  0  0  0  0  0  0  0
   -1.6300   -0.5900    0.0000 C   0  0  2  0  0  0  0  0  0  0  0  0
   -2.9300    0.1600    0.0000 C   0  0  0  0  0  0  0  0  0  0  0  0
   -4.2300   -0.5900    0.0000 C   0  0  0  0  0  0  0  0  0  0  0  0
   -4.2300   -2.0900    0.0000 C   0  0  1  0  0  0  0  0  0  0  0  0
   -5.5289   -2.8402    0.0000 O   0  0  0  0  0  0  0  0  0  0  0  0
   -2.9300   -2.8400    0.0000 C   0  0  0  0  0  0  0  0  0  0  0  0
   -1.6300   -2.0900    0.0000 C   0  0  2  0  0  0  0  0  0  0  0  0
   -0.3300   -2.8400    0.0000 C   0  0  0  0  0  0  0  0  0  0  0  0
    0.9700   -2.0900    0.0000 C   0  0  0  0  0  0  0  0  0  0  0  0
    0.9700   -0.5900    0.0000 C   0  0  2  0  0  0  0  0  0  0  0  0
   -0.3300    0.1600    0.0000 C   0  0  2  0  0  0  0  0  0  0  0  0
   -0.3300    1.6600    0.0000 C   0  0  0  0  0  0  0  0  0  0  0  0
    0.9700    2.4100    0.0000 C   0  0  0  0  0  0  0  0  0  0  0  0
    2.2700    1.6600    0.0000 C   0  0  2  0  0  0  0  0  0  0  0  0
    2.4272    3.1517    0.0000 C   0  0  0  0  0  0  0  0  0  0  0  0
    3.6900    2.1200    0.0000 C   0  0  0  0  0  0  0  0  0  0  0  0
    4.1538    3.5465    0.0000 O   0  0  0  0  0  0  0  0  0  0  0  0
    4.5700    0.9100    0.0000 C   0  0  0  0  0  0  0  0  0  0  0  0
    3.6900   -0.3000    0.0000 C   0  0  0  0  0  0  0  0  0  0  0  0
    2.2700    0.1600    0.0000 C   0  0  1  0  0  0  0  0  0  0  0  0
   -2.9290    1.6600    0.0000 O   0  0  0  0  0  0  0  0  0  0  0  0
  2  1  1  1  0  0  0
  2  3  1  0  0  0  0
  3  4  2  0  0  0  0
  4  5  1  0  0  0  0
  5  6  1  6  0  0  0
  5  7  1  0  0  0  0
  8  7  1  1  0  0  0
  2  8  1  0  0  0  0
  8  9  1  0  0  0  0
  9 10  1  0  0  0  0
 11 10  1  6  0  0  0
 11 12  1  0  0  0  0
  2 12  1  0  0  0  0
 12 13  1  1  0  0  0
 13 14  1  0  0  0  0
 14 15  1  0  0  0  0
 15 16  1  1  0  0  0
 15 17  1  0  0  0  0
 17 18  2  0  0  0  0
 17 19  1  0  0  0  0
 19 20  1  0  0  0  0
 21 20  1  1  0  0  0
 11 21  1  0  0  0  0
 15 21  1  0  0  0  0
 22  1  1  0  0  0  0
M  END
> <InChI>
InChI=1S/C19H28O3/c1-18-8-7-16-14(15(18)4-5-17(18)22)3-2-12-10-13(21)6-9-19(12,16)11-20/h6,9,12-16,20-21H,2-5,7-8,10-11H2,1H3/t12-,13+,14-,15-,16-,18-,19+/m0/s1

> <InChIKey>
QXNJQYRCZIIZFP-AZERQAKLSA-N

> <SMILES>
C([C@]12C=C[C@@H](O)C[C@@H]1CC[C@@H]3[C@@H]2CC[C@]4(C)C(=O)CC[C@@H]34)O

> <Synonyms>


> <PUBCHEM_CID>


> <Molecular_formula>
C19H28O3

> <Major_Isotope_Mass>
304.20384475599997

> <ALogP>
2.047999999999999

> <Lipinski_Violations>
0

> <Insecticide_Likeness_Violations>
0

> <Post_Em_Herbicide_Likeness_Violations>
0

> <Metabolite_ID>
BTM00010

> <Reaction>
Hydroxylation of methyl carbon adjacent to aliphatic ring

> <Reaction_ID>
BTMR0054

> <Enzyme(s)>
CYP2B6
CYP2C8
CYP2C9
CYP2C19
CYP2D6
CYP3A4

> <Biosystem>
HUMAN

> <Precursor_ID>


> <Precursor_SMILES>
C[C@]12C=C[C@@H](O)C[C@@H]1CC[C@@H]3[C@@H]2CC[C@]4(C)C(=O)CC[C@@H]34

> <Precursor_InChI>
InChI=1S/C19H28O2/c1-18-9-7-13(20)11-12(18)3-4-14-15-5-6-17(21)19(15,2)10-8-16(14)18/h7,9,12-16,20H,3-6,8,10-11H2,1-2H3/t12-,13+,14-,15-,16-,18-,19-/m0/s1

> <Precursor_InChIKey>
DYMROBVXGSLPAY-HLUDHZFRSA-N

> <Precursor_ALogP>


> <Precursor_Major_Isotope_Mass>
288.2089

$$$$
BTM00011
  CDK     09122622072D

 22 25  0  0  1  0  0  0  0  0999 V2000
   -1.6300    0.9100    0.0000 C   0  0  0  0  0  0  0  0  0  0  0  0
   -1.6300   -0.5900    0.0000 C   0  0  2  0  0  0  0  0  0  0  0  0
   -2.9300    0.1600    0.0000 C   0  0  0  0  0  0  0  0  0  0  0  0
   -4.2300   -0.5900    0.0000 C   0  0  0  0  0  0  0  0  0  0  0  0
   -4.2300   -2.0900    0.0000 C   0  0  1  0  0  0  0  0  0  0  0  0
   -5.5289   -2.8402    0.0000 O   0  0  0  0  0  0  0  0  0  0  0  0
   -2.9300   -2.8400    0.0000 C   0  0  0  0  0  0  0  0  0  0  0  0
   -1.6300   -2.0900    0.0000 C   0  0  2  0  0  0  0  0  0  0  0  0
   -0.3300   -2.8400    0.0000 C   0  0  0  0  0  0  0  0  0  0  0  0
    0.9700   -2.0900    0.0000 C   0  0  0  0  0  0  0  0  0  0  0  0
    0.9700   -0.5900    0.0000 C   0  0  2  0  0  0  0  0  0  0  0  0
   -0.3300    0.1600    0.0000 C   0  0  2  0  0  0  0  0  0  0  0  0
   -0.3300    1.6600    0.0000 C   0  0  0  0  0  0  0  0  0  0  0  0
    0.9700    2.4100    0.0000 C   0  0  0  0  0  0  0  0  0  0  0  0
    2.2700    1.6600    0.0000 C   0  0  2  0  0  0  0  0  0  0  0  0
    2.4272    3.1517    0.0000 C   0  0  0  0  0  0  0  0  0  0  0  0
    3.6900    2.1200    0.0000 C   0  0  0  0  0  0  0  0  0  0  0  0
    4.1538    3.5465    0.0000 O   0  0  0  0  0  0  0  0  0  0  0  0
    4.5700    0.9100    0.0000 C   0  0  0  0  0  0  0  0  0  0  0  0
    3.6900   -0.3000    0.0000 C   0  0  0  0  0  0  0  0  0  0  0  0
    2.2700    0.1600    0.0000 C   0  0  1  0  0  0  0  0  0  0  0  0
    1.2139    4.0338    0.0000 O   0  0  0  0  0  0  0  0  0  0  0  0
  2  1  1  1  0  0  0
  2  3  1  0  0  0  0
  3  4  2  0  0  0  0
  4  5  1  0  0  0  0
  5  6  1  6  0  0  0
  5  7  1  0  0  0  0
  8  7  1  1  0  0  0
  2  8  1  0  0  0  0
  8  9  1  0  0  0  0
  9 10  1  0  0  0  0
 11 10  1  6  0  0  0
 11 12  1  0  0  0  0
  2 12  1  0  0  0  0
 12 13  1  1  0  0  0
 13 14  1  0  0  0  0
 14 15  1  0  0  0  0
 15 16  1  1  0  0  0
 15 17  1  0  0  0  0
 17 18  2  0  0  0  0
 17 19  1  0  0  0  0
 19 20  1  0  0  0  0
 21 20  1  1  0  0  0
 11 21  1  0  0  0  0
 15 21  1  0  0  0  0
 22 16  1  0  0  0  0
M  END
> <InChI>
InChI=1S/C19H28O3/c1-18-8-6-13(21)10-12(18)2-3-14-15(18)7-9-19(11-20)16(14)4-5-17(19)22/h6,8,12-16,20-21H,2-5,7,9-11H2,1H3/t12-,13+,14+,15-,16-,18-,19+/m0/s1

> <InChIKey>
DYOCHBJAZMWODB-XNTGMIQRSA-N

> <SMILES>
C[C@]12C=C[C@@H](O)C[C@@H]1CC[C@@H]3[C@@H]2CC[C@]4(CO)C(=O)CC[C@@H]34

> <Synonyms>


> <PUBCHEM_CID>


> <Molecular_formula>
C19H28O3

> <Major_Isotope_Mass>
304.20384475599997

> <ALogP>
2.047999999999999

> <Lipinski_Violations>
0

> <Insecticide_Likeness_Violations>
0

> <Post_Em_Herbicide_Likeness_Violations>
0

> <Metabolite_ID>
BTM00011

> <Reaction>
Hydroxylation of methyl carbon adjacent to aliphatic ring

> <Reaction_ID>
BTMR0054

> <Enzyme(s)>
CYP2B6
CYP2C8
CYP2C9
CYP2C19
CYP2D6
CYP3A4

> <Biosystem>
HUMAN

> <Precursor_ID>


> <Precursor_SMILES>
C[C@]12C=C[C@@H](O)C[C@@H]1CC[C@@H]3[C@@H]2CC[C@]4(C)C(=O)CC[C@@H]34

> <Precursor_InChI>
InChI=1S/C19H28O2/c1-18-9-7-13(20)11-12(18)3-4-14-15-5-6-17(21)19(15,2)10-8-16(14)18/h7,9,12-16,20H,3-6,8,10-11H2,1-2H3/t12-,13+,14-,15-,16-,18-,19-/m0/s1

> <Precursor_InChIKey>
DYMROBVXGSLPAY-HLUDHZFRSA-N

> <Precursor_ALogP>


> <Precursor_Major_Isotope_Mass>
288.2089

$$$$
BTM00012
  CDK     09122622072D

 21 24  0  0  1  0  0  0  0  0999 V2000
   -1.6800    1.1900    0.0000 C   0  0  0  0  0  0  0  0  0  0  0  0
   -1.6800   -0.3100    0.0000 C   0  0  2  0  0  0  0  0  0  0  0  0
   -2.9800    0.4400    0.0000 C   0  0  0  0  0  0  0  0  0  0  0  0
   -4.2800   -0.3100    0.0000 C   0  0  0  0  0  0  0  0  0  0  0  0
   -4.2800   -1.8100    0.0000 C   0  0  1  0  0  0  0  0  0  0  0  0
   -5.5789   -2.5602    0.0000 O   0  0  0  0  0  0  0  0  0  0  0  0
   -2.9800   -2.5600    0.0000 C   0  0  0  0  0  0  0  0  0  0  0  0
   -1.6800   -1.8100    0.0000 C   0  0  2  0  0  0  0  0  0  0  0  0
   -0.3800   -2.5600    0.0000 C   0  0  0  0  0  0  0  0  0  0  0  0
    0.9200   -1.8100    0.0000 C   0  0  0  0  0  0  0  0  0  0  0  0
    0.9200   -0.3100    0.0000 C   0  0  2  0  0  0  0  0  0  0  0  0
   -0.3800    0.4400    0.0000 C   0  0  2  0  0  0  0  0  0  0  0  0
   -0.3800    1.9400    0.0000 C   0  0  0  0  0  0  0  0  0  0  0  0
    0.9200    2.6900    0.0000 C   0  0  0  0  0  0  0  0  0  0  0  0
    2.2200    1.9400    0.0000 C   0  0  2  0  0  0  0  0  0  0  0  0
    2.3787    3.4316    0.0000 C   0  0  0  0  0  0  0  0  0  0  0  0
    3.6500    2.4000    0.0000 C   0  0  0  0  0  0  0  0  0  0  0  0
    4.1153    3.8260    0.0000 O   0  0  0  0  0  0  0  0  0  0  0  0
    4.5300    1.1900    0.0000 C   0  0  0  0  0  0  0  0  0  0  0  0
    3.6500   -0.0200    0.0000 C   0  0  0  0  0  0  0  0  0  0  0  0
    2.2200    0.4400    0.0000 C   0  0  1  0  0  0  0  0  0  0  0  0
  2  1  1  1  0  0  0
  2  3  1  0  0  0  0
  3  4  2  0  0  0  0
  4  5  1  0  0  0  0
  5  6  1  6  0  0  0
  5  7  1  0  0  0  0
  8  7  1  1  0  0  0
  2  8  1  0  0  0  0
  8  9  1  0  0  0  0
  9 10  1  0  0  0  0
 11 10  1  6  0  0  0
 11 12  1  0  0  0  0
  2 12  1  0  0  0  0
 12 13  1  1  0  0  0
 13 14  1  0  0  0  0
 14 15  1  0  0  0  0
 15 16  1  1  0  0  0
 15 17  1  0  0  0  0
 17 18  1  0  0  0  0
 17 19  1  0  0  0  0
 19 20  1  0  0  0  0
 21 20  1  1  0  0  0
 11 21  1  0  0  0  0
 15 21  1  0  0  0  0
M  END
> <InChI>
InChI=1S/C19H30O2/c1-18-9-7-13(20)11-12(18)3-4-14-15-5-6-17(21)19(15,2)10-8-16(14)18/h7,9,12-17,20-21H,3-6,8,10-11H2,1-2H3/t12-,13+,14-,15-,16-,17?,18-,19-/m0/s1

> <InChIKey>
RZFGPAMUAXASRE-UNPXRYTGSA-N

> <SMILES>
C[C@]12C=C[C@@H](O)C[C@@H]1CC[C@@H]3[C@@H]2CC[C@]4(C)C(O)CC[C@@H]34

> <Synonyms>


> <PUBCHEM_CID>


> <Molecular_formula>
C19H30O2

> <Major_Isotope_Mass>
290.2245802

> <ALogP>
3.1781999999999986

> <Lipinski_Violations>
0

> <Insecticide_Likeness_Violations>
0

> <Post_Em_Herbicide_Likeness_Violations>
0

> <Metabolite_ID>
BTM00012

> <Reaction>
Reduction of ketone to alcohol

> <Reaction_ID>
BTMR1171

> <Enzyme(s)>
CYP2C9

> <Biosystem>
HUMAN

> <Precursor_ID>


> <Precursor_SMILES>
C[C@]12C=C[C@@H](O)C[C@@H]1CC[C@@H]3[C@@H]2CC[C@]4(C)C(=O)CC[C@@H]34

> <Precursor_InChI>
InChI=1S/C19H28O2/c1-18-9-7-13(20)11-12(18)3-4-14-15-5-6-17(21)19(15,2)10-8-16(14)18/h7,9,12-16,20H,3-6,8,10-11H2,1-2H3/t12-,13+,14-,15-,16-,18-,19-/m0/s1

> <Precursor_InChIKey>
DYMROBVXGSLPAY-HLUDHZFRSA-N

> <Precursor_ALogP>


> <Precursor_Major_Isotope_Mass>
288.2089

$$$$
