BTM00001
  CDK     09122622442D

 20 23  0  0  1  0  0  0  0  0999 V2000
    2.3787    3.4316    0.0000 C   0  0  0  0  0  0  0  0  0  0  0  0
    2.2200    1.9400    0.0000 C   0  0  2  0  0  0  0  0  0  0  0  0
    0.9200    2.6900    0.0000 C   0  0  0  0  0  0  0  0  0  0  0  0
   -0.3800    1.9400    0.0000 C   0  0  0  0  0  0  0  0  0  0  0  0
   -0.3800    0.4400    0.0000 C   0  0  0  0  0  0  0  0  0  0  0  0
   -1.6800   -0.3100    0.0000 C   0  0  0  0  0  0  0  0  0  0  0  0
   -2.9800    0.4400    0.0000 C   0  0  0  0  0  0  0  0  0  0  0  0
   -4.2800   -0.3100    0.0000 C   0  0  0  0  0  0  0  0  0  0  0  0
   -4.2800   -1.8100    0.0000 C   0  0  0  0  0  0  0  0  0  0  0  0
   -5.5789   -2.5602    0.0000 O   0  0  0  0  0  0  0  0  0  0  0  0
   -2.9800   -2.5600    0.0000 C   0  0  0  0  0  0  0  0  0  0  0  0
   -1.6800   -1.8100    0.0000 C   0  0  0  0  0  0  0  0  0  0  0  0
   -0.3800   -2.5600    0.0000 C   0  0  0  0  0  0  0  0  0  0  0  0
    0.9200   -1.8100    0.0000 C   0  0  0  0  0  0  0  0  0  0  0  0
    0.9200   -0.3100    0.0000 C   0  0  1  0  0  0  0  0  0  0  0  0
    2.2200    0.4400    0.0000 C   0  0  2  0  0  0  0  0  0  0  0  0
    3.6500   -0.0200    0.0000 C   0  0  0  0  0  0  0  0  0  0  0  0
    4.5300    1.1900    0.0000 C   0  0  0  0  0  0  0  0  0  0  0  0
    3.6500    2.4000    0.0000 C   0  0  2  0  0  0  0  0  0  0  0  0
    4.1153    3.8260    0.0000 O   0  0  0  0  0  0  0  0  0  0  0  0
  2  1  1  1  0  0  0
  2  3  1  0  0  0  0
  3  4  2  0  0  0  0
  4  5  1  0  0  0  0
  5  6  2  0  0  0  0
  6  7  1  0  0  0  0
  7  8  1  0  0  0  0
  8  9  1  0  0  0  0
  9 10  1  0  0  0  0
  9 11  1  0  0  0  0
 11 12  2  0  0  0  0
  6 12  1  0  0  0  0
 12 13  1  0  0  0  0
 13 14  1  0  0  0  0
 15 14  1  6  0  0  0
  5 15  1  0  0  0  0
 15 16  1  0  0  0  0
  2 16  1  0  0  0  0
 16 17  1  1  0  0  0
 17 18  1  0  0  0  0
 18 19  1  0  0  0  0
  2 19  1  0  0  0  0
 19 20  1  1  0  0  0
M  END
> <InChI>
InChI=1S/C18H24O2/c1-18-9-8-14-13-5-3-12(19)10-11(13)2-4-15(14)16(18)6-7-17(18)20/h8-10,12,15-17,19-20H,2-7H2,1H3/t12?,15-,16+,17+,18+/m1/s1

> <InChIKey>
GKHTWBOYRAKWOG-XBQCEPGRSA-N

> <SMILES>
C[C@]12C=CC3=C4CCC(O)C=C4CC[C@H]3[C@@H]1CC[C@@H]2O

> <Synonyms>


> <PUBCHEM_CID>


> <Molecular_formula>
C18H24O2

> <Major_Isotope_Mass>
272.177630008

> <ALogP>
2.666599999999999

> <Lipinski_Violations>
0

> <Insecticide_Likeness_Violations>
0

> <Post_Em_Herbicide_Likeness_Violations>
0

> <Metabolite_ID>
BTM00001

> <Reaction>
Reduction of carbonyl

> <Reaction_ID>
BTMR0368

> <Enzyme(s)>
EC 1.1.1.184

> <Biosystem>
HUMAN

> <Precursor_ID>


> <Precursor_SMILES>
C[C@]12C=CC3=C4CCC(=O)C=C4CC[C@H]3[C@@H]1CC[C@@H]2O

> <Precursor_InChI>
InChI=1S/C18H22O2/c1-18-9-8-14-13-5-3-12(19)10-11(13)2-4-15(14)16(18)6-7-17(18)20/h8-10,15-17,20H,2-7H2,1H3/t15-,16+,17+,18+/m1/s1

> <Precursor_InChIKey>
MEHHPFQKXOUFFV-OWSLCNJRSA-N

> <Precursor_ALogP>


> <Precursor_Major_Isotope_Mass>
270.1619

$$$$
BTM00002
  CDK     09122622442D

 20 23  0  0  1  0  0  0  0  0999 V2000
    2.3787    3.4316    0.0000 C   0  0  0  0  0  0  0  0  0  0  0  0
    2.2200    1.9400    0.0000 C   0  0  2  0  0  0  0  0  0  0  0  0
    0.9200    2.6900    0.0000 C   0  0  0  0  0  0  0  0  0  0  0  0
   -0.3800    1.9400    0.0000 C   0  0  0  0  0  0  0  0  0  0  0  0
   -0.3800    0.4400    0.0000 C   0  0  0  0  0  0  0  0  0  0  0  0
   -1.6800   -0.3100    0.0000 C   0  0  0  0  0  0  0  0  0  0  0  0
   -2.9800    0.4400    0.0000 C   0  0  0  0  0  0  0  0  0  0  0  0
   -4.2800   -0.3100    0.0000 C   0  0  0  0  0  0  0  0  0  0  0  0
   -4.2800   -1.8100    0.0000 C   0  0  0  0  0  0  0  0  0  0  0  0
   -5.5789   -2.5602    0.0000 O   0  0  0  0  0  0  0  0  0  0  0  0
   -2.9800   -2.5600    0.0000 C   0  0  0  0  0  0  0  0  0  0  0  0
   -1.6800   -1.8100    0.0000 C   0  0  0  0  0  0  0  0  0  0  0  0
   -0.3800   -2.5600    0.0000 C   0  0  0  0  0  0  0  0  0  0  0  0
    0.9200   -1.8100    0.0000 C   0  0  0  0  0  0  0  0  0  0  0  0
    0.9200   -0.3100    0.0000 C   0  0  1  0  0  0  0  0  0  0  0  0
    2.2200    0.4400    0.0000 C   0  0  2  0  0  0  0  0  0  0  0  0
    3.6500   -0.0200    0.0000 C   0  0  0  0  0  0  0  0  0  0  0  0
    4.5300    1.1900    0.0000 C   0  0  0  0  0  0  0  0  0  0  0  0
    3.6500    2.4000    0.0000 C   0  0  0  0  0  0  0  0  0  0  0  0
    4.1153    3.8260    0.0000 O   0  0  0  0  0  0  0  0  0  0  0  0
  2  1  1  1  0  0  0
  2  3  1  0  0  0  0
  3  4  2  0  0  0  0
  4  5  1  0  0  0  0
  5  6  2  0  0  0  0
  6  7  1  0  0  0  0
  7  8  1  0  0  0  0
  8  9  1  0  0  0  0
  9 10  2  0  0  0  0
  9 11  1  0  0  0  0
 11 12  2  0  0  0  0
  6 12  1  0  0  0  0
 12 13  1  0  0  0  0
 13 14  1  0  0  0  0
 15 14  1  6  0  0  0
  5 15  1  0  0  0  0
 15 16  1  0  0  0  0
  2 16  1  0  0  0  0
 16 17  1  1  0  0  0
 17 18  1  0  0  0  0
 18 19  1  0  0  0  0
  2 19  1  0  0  0  0
 19 20  2  0  0  0  0
M  END
> <InChI>
InChI=1S/C18H20O2/c1-18-9-8-14-13-5-3-12(19)10-11(13)2-4-15(14)16(18)6-7-17(18)20/h8-10,15-16H,2-7H2,1H3/t15-,16+,18+/m1/s1

> <InChIKey>
KBSXJBBFQODDTQ-RYRKJORJSA-N

> <SMILES>
C[C@]12C=CC3=C4CCC(=O)C=C4CC[C@H]3[C@@H]1CCC2=O

> <Synonyms>


> <PUBCHEM_CID>


> <Molecular_formula>
C18H20O2

> <Major_Isotope_Mass>
268.14632988

> <ALogP>
2.5875999999999992

> <Lipinski_Violations>
0

> <Insecticide_Likeness_Violations>
0

> <Post_Em_Herbicide_Likeness_Violations>
0

> <Metabolite_ID>
BTM00002

> <Reaction>
Dehydrogenation of 17-beta-hydroxysteroid

> <Reaction_ID>
BTMR0370

> <Enzyme(s)>
EC 1.1.1.239

> <Biosystem>
HUMAN

> <Precursor_ID>


> <Precursor_SMILES>
C[C@]12C=CC3=C4CCC(=O)C=C4CC[C@H]3[C@@H]1CC[C@@H]2O

> <Precursor_InChI>
InChI=1S/C18H22O2/c1-18-9-8-14-13-5-3-12(19)10-11(13)2-4-15(14)16(18)6-7-17(18)20/h8-10,15-17,20H,2-7H2,1H3/t15-,16+,17+,18+/m1/s1

> <Precursor_InChIKey>
MEHHPFQKXOUFFV-OWSLCNJRSA-N

> <Precursor_ALogP>


> <Precursor_Major_Isotope_Mass>
270.1619

$$$$
BTM00003
  CDK     09122622442D

 21 24  0  0  1  0  0  0  0  0999 V2000
    2.0572    3.1517    0.0000 C   0  0  0  0  0  0  0  0  0  0  0  0
    1.9000    1.6600    0.0000 C   0  0  2  0  0  0  0  0  0  0  0  0
    0.6000    2.4100    0.0000 C   0  0  0  0  0  0  0  0  0  0  0  0
   -0.7000    1.6600    0.0000 C   0  0  0  0  0  0  0  0  0  0  0  0
   -0.7000    0.1600    0.0000 C   0  0  0  0  0  0  0  0  0  0  0  0
   -2.0000   -0.5900    0.0000 C   0  0  0  0  0  0  0  0  0  0  0  0
   -3.3000    0.1600    0.0000 C   0  0  0  0  0  0  0  0  0  0  0  0
   -4.6000   -0.5900    0.0000 C   0  0  0  0  0  0  0  0  0  0  0  0
   -4.6000   -2.0900    0.0000 C   0  0  0  0  0  0  0  0  0  0  0  0
   -5.8989   -2.8402    0.0000 O   0  0  0  0  0  0  0  0  0  0  0  0
   -3.3000   -2.8400    0.0000 C   0  0  0  0  0  0  0  0  0  0  0  0
   -2.0000   -2.0900    0.0000 C   0  0  0  0  0  0  0  0  0  0  0  0
   -0.7000   -2.8400    0.0000 C   0  0  0  0  0  0  0  0  0  0  0  0
    0.6000   -2.0900    0.0000 C   0  0  0  0  0  0  0  0  0  0  0  0
    0.6000   -0.5900    0.0000 C   0  0  1  0  0  0  0  0  0  0  0  0
    1.9000    0.1600    0.0000 C   0  0  2  0  0  0  0  0  0  0  0  0
    3.3200   -0.3000    0.0000 C   0  0  0  0  0  0  0  0  0  0  0  0
    4.2000    0.9100    0.0000 C   0  0  0  0  0  0  0  0  0  0  0  0
    3.3200    2.1200    0.0000 C   0  0  2  0  0  0  0  0  0  0  0  0
    3.7838    3.5465    0.0000 O   0  0  0  0  0  0  0  0  0  0  0  0
    5.7000    0.9100    0.0000 O   0  0  0  0  0  0  0  0  0  0  0  0
  2  1  1  1  0  0  0
  2  3  1  0  0  0  0
  3  4  2  0  0  0  0
  4  5  1  0  0  0  0
  5  6  2  0  0  0  0
  6  7  1  0  0  0  0
  7  8  1  0  0  0  0
  8  9  1  0  0  0  0
  9 10  2  0  0  0  0
  9 11  1  0  0  0  0
 11 12  2  0  0  0  0
  6 12  1  0  0  0  0
 12 13  1  0  0  0  0
 13 14  1  0  0  0  0
 15 14  1  6  0  0  0
  5 15  1  0  0  0  0
 15 16  1  0  0  0  0
  2 16  1  0  0  0  0
 16 17  1  1  0  0  0
 17 18  1  0  0  0  0
 18 19  1  0  0  0  0
  2 19  1  0  0  0  0
 19 20  1  1  0  0  0
 21 18  1  0  0  0  0
M  END
> <InChI>
InChI=1S/C18H22O3/c1-18-7-6-13-12-5-3-11(19)8-10(12)2-4-14(13)15(18)9-16(20)17(18)21/h6-8,14-17,20-21H,2-5,9H2,1H3/t14-,15+,16?,17+,18+/m1/s1

> <InChIKey>
MUKPUHNHYCCPRP-JCWLEJLNSA-N

> <SMILES>
C[C@]12C=CC3=C4CCC(=O)C=C4CC[C@H]3[C@@H]1CC([C@@H]2O)O

> <Synonyms>


> <PUBCHEM_CID>


> <Molecular_formula>
C18H22O3

> <Major_Isotope_Mass>
286.156894564

> <ALogP>
1.6601999999999968

> <Lipinski_Violations>
0

> <Insecticide_Likeness_Violations>
0

> <Post_Em_Herbicide_Likeness_Violations>
0

> <Metabolite_ID>
BTM00003

> <Reaction>
16-Hydroxylation of sterol

> <Reaction_ID>
BTMR0407

> <Enzyme(s)>
CYP1A2
CYP2A6
CYP2B6
CYP2C8
CYP2C9
CYP2C19
CYP2D6
CYP2E1
CYP3A4

> <Biosystem>
HUMAN

> <Precursor_ID>


> <Precursor_SMILES>
C[C@]12C=CC3=C4CCC(=O)C=C4CC[C@H]3[C@@H]1CC[C@@H]2O

> <Precursor_InChI>
InChI=1S/C18H22O2/c1-18-9-8-14-13-5-3-12(19)10-11(13)2-4-15(14)16(18)6-7-17(18)20/h8-10,15-17,20H,2-7H2,1H3/t15-,16+,17+,18+/m1/s1

> <Precursor_InChIKey>
MEHHPFQKXOUFFV-OWSLCNJRSA-N

> <Precursor_ALogP>


> <Precursor_Major_Isotope_Mass>
270.1619

$$$$
BTM00004
  CDK     09122622442D

 21 24  0  0  1  0  0  0  0  0999 V2000
    2.6072    3.1917    0.0000 C   0  0  0  0  0  0  0  0  0  0  0  0
    2.4500    1.7000    0.0000 C   0  0  2  0  0  0  0  0  0  0  0  0
    1.1500    2.4500    0.0000 C   0  0  0  0  0  0  0  0  0  0  0  0
   -0.1500    1.7000    0.0000 C   0  0  0  0  0  0  0  0  0  0  0  0
   -0.1500    0.2000    0.0000 C   0  0  0  0  0  0  0  0  0  0  0  0
   -1.4500   -0.5500    0.0000 C   0  0  0  0  0  0  0  0  0  0  0  0
   -2.7500    0.2000    0.0000 C   0  0  0  0  0  0  0  0  0  0  0  0
   -4.0500   -0.5500    0.0000 C   0  0  0  0  0  0  0  0  0  0  0  0
   -4.0500   -2.0500    0.0000 C   0  0  0  0  0  0  0  0  0  0  0  0
   -5.3489   -2.8002    0.0000 O   0  0  0  0  0  0  0  0  0  0  0  0
   -2.7500   -2.8000    0.0000 C   0  0  0  0  0  0  0  0  0  0  0  0
   -1.4500   -2.0500    0.0000 C   0  0  0  0  0  0  0  0  0  0  0  0
   -0.1500   -2.8000    0.0000 C   0  0  0  0  0  0  0  0  0  0  0  0
    1.1500   -2.0500    0.0000 C   0  0  0  0  0  0  0  0  0  0  0  0
    1.1500   -0.5500    0.0000 C   0  0  1  0  0  0  0  0  0  0  0  0
    2.4500    0.2000    0.0000 C   0  0  2  0  0  0  0  0  0  0  0  0
    3.8700   -0.2700    0.0000 C   0  0  0  0  0  0  0  0  0  0  0  0
    4.7600    0.9500    0.0000 C   0  0  0  0  0  0  0  0  0  0  0  0
    3.8700    2.1600    0.0000 C   0  0  2  0  0  0  0  0  0  0  0  0
    4.3300    3.5877    0.0000 O   0  0  0  0  0  0  0  0  0  0  0  0
   -5.3489    0.2002    0.0000 O   0  0  0  0  0  0  0  0  0  0  0  0
  2  1  1  1  0  0  0
  2  3  1  0  0  0  0
  3  4  2  0  0  0  0
  4  5  1  0  0  0  0
  5  6  2  0  0  0  0
  6  7  1  0  0  0  0
  7  8  1  0  0  0  0
  8  9  1  0  0  0  0
  9 10  2  0  0  0  0
  9 11  1  0  0  0  0
 11 12  2  0  0  0  0
  6 12  1  0  0  0  0
 12 13  1  0  0  0  0
 13 14  1  0  0  0  0
 15 14  1  6  0  0  0
  5 15  1  0  0  0  0
 15 16  1  0  0  0  0
  2 16  1  0  0  0  0
 16 17  1  1  0  0  0
 17 18  1  0  0  0  0
 18 19  1  0  0  0  0
  2 19  1  0  0  0  0
 19 20  1  1  0  0  0
 21  8  1  0  0  0  0
M  END
> <InChI>
InChI=1S/C18H22O3/c1-18-7-6-11-12(14(18)4-5-17(18)21)3-2-10-8-15(19)16(20)9-13(10)11/h6-8,12,14,16-17,20-21H,2-5,9H2,1H3/t12-,14+,16?,17+,18+/m1/s1

> <InChIKey>
WBZYWZGTILCXIM-LCNHYUJFSA-N

> <SMILES>
C[C@]12C=CC3=C4CC(C(=O)C=C4CC[C@H]3[C@@H]1CC[C@@H]2O)O

> <Synonyms>


> <PUBCHEM_CID>


> <Molecular_formula>
C18H22O3

> <Major_Isotope_Mass>
286.15689456399997

> <ALogP>
1.9465999999999972

> <Lipinski_Violations>
0

> <Insecticide_Likeness_Violations>
0

> <Post_Em_Herbicide_Likeness_Violations>
0

> <Metabolite_ID>
BTM00004

> <Reaction>
2-Hydroxylation of sterol

> <Reaction_ID>
BTMR0398

> <Enzyme(s)>
CYP1A2
CYP2C19
CYP3A4

> <Biosystem>
HUMAN

> <Precursor_ID>


> <Precursor_SMILES>
C[C@]12C=CC3=C4CCC(=O)C=C4CC[C@H]3[C@@H]1CC[C@@H]2O

> <Precursor_InChI>
InChI=1S/C18H22O2/c1-18-9-8-14-13-5-3-12(19)10-11(13)2-4-15(14)16(18)6-7-17(18)20/h8-10,15-17,20H,2-7H2,1H3/t15-,16+,17+,18+/m1/s1

> <Precursor_InChIKey>
MEHHPFQKXOUFFV-OWSLCNJRSA-N

> <Precursor_ALogP>


> <Precursor_Major_Isotope_Mass>
270.1619

$$$$
BTM00005
  CDK     09122622442D

 21 24  0  0  1  0  0  0  0  0999 V2000
    2.3787    3.4316    0.0000 C   0  0  0  0  0  0  0  0  0  0  0  0
    2.2200    1.9400    0.0000 C   0  0  2  0  0  0  0  0  0  0  0  0
    0.9200    2.6900    0.0000 C   0  0  0  0  0  0  0  0  0  0  0  0
   -0.3800    1.9400    0.0000 C   0  0  0  0  0  0  0  0  0  0  0  0
   -0.3800    0.4400    0.0000 C   0  0  0  0  0  0  0  0  0  0  0  0
   -1.6800   -0.3100    0.0000 C   0  0  0  0  0  0  0  0  0  0  0  0
   -2.9800    0.4400    0.0000 C   0  0  0  0  0  0  0  0  0  0  0  0
   -4.2800   -0.3100    0.0000 C   0  0  0  0  0  0  0  0  0  0  0  0
   -4.2800   -1.8100    0.0000 C   0  0  0  0  0  0  0  0  0  0  0  0
   -5.5789   -2.5602    0.0000 O   0  0  0  0  0  0  0  0  0  0  0  0
   -2.9800   -2.5600    0.0000 C   0  0  0  0  0  0  0  0  0  0  0  0
   -1.6800   -1.8100    0.0000 C   0  0  0  0  0  0  0  0  0  0  0  0
   -0.3800   -2.5600    0.0000 C   0  0  0  0  0  0  0  0  0  0  0  0
    0.9200   -1.8100    0.0000 C   0  0  0  0  0  0  0  0  0  0  0  0
    0.9200   -0.3100    0.0000 C   0  0  1  0  0  0  0  0  0  0  0  0
    2.2200    0.4400    0.0000 C   0  0  2  0  0  0  0  0  0  0  0  0
    3.6500   -0.0200    0.0000 C   0  0  0  0  0  0  0  0  0  0  0  0
    4.5300    1.1900    0.0000 C   0  0  0  0  0  0  0  0  0  0  0  0
    3.6500    2.4000    0.0000 C   0  0  2  0  0  0  0  0  0  0  0  0
    4.1153    3.8260    0.0000 O   0  0  0  0  0  0  0  0  0  0  0  0
   -2.9800   -4.0600    0.0000 O   0  0  0  0  0  0  0  0  0  0  0  0
  2  1  1  1  0  0  0
  2  3  1  0  0  0  0
  3  4  2  0  0  0  0
  4  5  1  0  0  0  0
  5  6  2  0  0  0  0
  6  7  1  0  0  0  0
  7  8  1  0  0  0  0
  8  9  1  0  0  0  0
  9 10  2  0  0  0  0
  9 11  1  0  0  0  0
 11 12  2  0  0  0  0
  6 12  1  0  0  0  0
 12 13  1  0  0  0  0
 13 14  1  0  0  0  0
 15 14  1  6  0  0  0
  5 15  1  0  0  0  0
 15 16  1  0  0  0  0
  2 16  1  0  0  0  0
 16 17  1  1  0  0  0
 17 18  1  0  0  0  0
 18 19  1  0  0  0  0
  2 19  1  0  0  0  0
 19 20  1  1  0  0  0
 21 11  1  0  0  0  0
M  END
> <InChI>
InChI=1S/C18H22O3/c1-18-9-8-11-10-4-6-15(19)17(21)13(10)3-2-12(11)14(18)5-7-16(18)20/h8-9,12,14,16,20-21H,2-7H2,1H3/t12-,14+,16+,18+/m1/s1

> <InChIKey>
NXWZMYDTQBGZJG-XJOINEQPSA-N

> <SMILES>
C[C@]12C=CC3=C4CCC(=O)C(=C4CC[C@H]3[C@@H]1CC[C@@H]2O)O

> <Synonyms>


> <PUBCHEM_CID>


> <Molecular_formula>
C18H22O3

> <Major_Isotope_Mass>
286.15689456399997

> <ALogP>
2.0639999999999987

> <Lipinski_Violations>
0

> <Insecticide_Likeness_Violations>
0

> <Post_Em_Herbicide_Likeness_Violations>
0

> <Metabolite_ID>
BTM00005

> <Reaction>
4-Hydroxylation of sterol

> <Reaction_ID>
BTMR0400

> <Enzyme(s)>
CYP1A2
CYP3A4

> <Biosystem>
HUMAN

> <Precursor_ID>


> <Precursor_SMILES>
C[C@]12C=CC3=C4CCC(=O)C=C4CC[C@H]3[C@@H]1CC[C@@H]2O

> <Precursor_InChI>
InChI=1S/C18H22O2/c1-18-9-8-14-13-5-3-12(19)10-11(13)2-4-15(14)16(18)6-7-17(18)20/h8-10,15-17,20H,2-7H2,1H3/t15-,16+,17+,18+/m1/s1

> <Precursor_InChIKey>
MEHHPFQKXOUFFV-OWSLCNJRSA-N

> <Precursor_ALogP>


> <Precursor_Major_Isotope_Mass>
270.1619

$$$$
BTM00006
  CDK     09122622442D

 21 25  0  0  1  0  0  0  0  0999 V2000
    1.1289    2.4179    0.0000 C   0  0  0  0  0  0  0  0  0  0  0  0
   -0.2414    3.0280    0.0000 C   0  0  2  0  0  0  0  0  0  0  0  0
   -0.2414    1.5280    0.0000 C   0  0  0  0  0  0  0  0  0  0  0  0
   -1.5404    0.7780    0.0000 C   0  0  0  0  0  0  0  0  0  0  0  0
   -2.8395    1.5280    0.0000 C   0  0  0  0  0  0  0  0  0  0  0  0
   -4.1385    0.7780    0.0000 C   0  0  0  0  0  0  0  0  0  0  0  0
   -4.1385   -0.7220    0.0000 C   0  0  0  0  0  0  0  0  0  0  0  0
   -5.4375   -1.4720    0.0000 C   0  0  0  0  0  0  0  0  0  0  0  0
   -6.7366   -0.7220    0.0000 C   0  0  0  0  0  0  0  0  0  0  0  0
   -8.0356   -1.4720    0.0000 O   0  0  0  0  0  0  0  0  0  0  0  0
   -6.7366    0.7780    0.0000 C   0  0  0  0  0  0  0  0  0  0  0  0
   -5.4375    1.5280    0.0000 C   0  0  0  0  0  0  0  0  0  0  0  0
   -5.4375    3.0280    0.0000 C   0  0  0  0  0  0  0  0  0  0  0  0
   -4.1385    3.7780    0.0000 C   0  0  0  0  0  0  0  0  0  0  0  0
   -2.8395    3.0280    0.0000 C   0  0  1  0  0  0  0  0  0  0  0  0
   -1.5404    3.7780    0.0000 C   0  0  2  0  0  0  0  0  0  0  0  0
   -1.2285    5.2452    0.0000 C   0  0  0  0  0  0  0  0  0  0  0  0
    0.2632    5.4020    0.0000 C   0  0  0  0  0  0  0  0  0  0  0  0
    0.8733    4.0317    0.0000 C   0  0  2  0  0  0  0  0  0  0  0  0
    2.3406    3.7198    0.0000 O   0  0  0  0  0  0  0  0  0  0  0  0
   -0.2414    0.0280    0.0000 O   0  0  0  0  0  0  0  0  0  0  0  0
  2  1  1  6  0  0  0
  2  3  1  0  0  0  0
  3  4  1  0  0  0  0
  4  5  1  0  0  0  0
  5  6  2  0  0  0  0
  6  7  1  0  0  0  0
  7  8  1  0  0  0  0
  8  9  1  0  0  0  0
  9 10  2  0  0  0  0
  9 11  1  0  0  0  0
 11 12  2  0  0  0  0
  6 12  1  0  0  0  0
 12 13  1  0  0  0  0
 13 14  1  0  0  0  0
 15 14  1  1  0  0  0
  5 15  1  0  0  0  0
 15 16  1  0  0  0  0
  2 16  1  0  0  0  0
 16 17  1  6  0  0  0
 17 18  1  0  0  0  0
 18 19  1  0  0  0  0
  2 19  1  0  0  0  0
 19 20  1  6  0  0  0
  4 21  1  0  0  0  0
 21  3  1  0  0  0  0
M  END
> <InChI>
InChI=1S/C18H22O3/c1-18-13(6-7-14(18)20)12-4-2-9-8-10(19)3-5-11(9)15(12)16-17(18)21-16/h8,12-14,16-17,20H,2-7H2,1H3/t12-,13-,14-,16?,17?,18-/m0/s1

> <InChIKey>
WHSLISBATRMOEI-XETQMCTLSA-N

> <SMILES>
C[C@]12C3C(C4=C5CCC(=O)C=C5CC[C@H]4[C@@H]1CC[C@@H]2O)O3

> <Synonyms>


> <PUBCHEM_CID>


> <Molecular_formula>
C18H22O3

> <Major_Isotope_Mass>
286.15689456399997

> <ALogP>
1.9044000000000005

> <Lipinski_Violations>
0

> <Insecticide_Likeness_Violations>
0

> <Post_Em_Herbicide_Likeness_Violations>
0

> <Metabolite_ID>
BTM00006

> <Reaction>
Epoxidation of alkene

> <Reaction_ID>
BTMR0110

> <Enzyme(s)>
CYP1A2
CYP2B6
CYP2B6
CYP2C8
CYP2C9
CYP2C19
CYP2D6
CYP2E1
CYP3A4

> <Biosystem>
HUMAN

> <Precursor_ID>


> <Precursor_SMILES>
C[C@]12C=CC3=C4CCC(=O)C=C4CC[C@H]3[C@@H]1CC[C@@H]2O

> <Precursor_InChI>
InChI=1S/C18H22O2/c1-18-9-8-14-13-5-3-12(19)10-11(13)2-4-15(14)16(18)6-7-17(18)20/h8-10,15-17,20H,2-7H2,1H3/t15-,16+,17+,18+/m1/s1

> <Precursor_InChIKey>
MEHHPFQKXOUFFV-OWSLCNJRSA-N

> <Precursor_ALogP>


> <Precursor_Major_Isotope_Mass>
270.1619

$$$$
BTM00007
  CDK     09122622442D

 21 24  0  0  1  0  0  0  0  0999 V2000
    2.3787    3.4316    0.0000 C   0  0  0  0  0  0  0  0  0  0  0  0
    2.2200    1.9400    0.0000 C   0  0  2  0  0  0  0  0  0  0  0  0
    0.9200    2.6900    0.0000 C   0  0  0  0  0  0  0  0  0  0  0  0
   -0.3800    1.9400    0.0000 C   0  0  0  0  0  0  0  0  0  0  0  0
   -0.3800    0.4400    0.0000 C   0  0  0  0  0  0  0  0  0  0  0  0
   -1.6800   -0.3100    0.0000 C   0  0  0  0  0  0  0  0  0  0  0  0
   -2.9800    0.4400    0.0000 C   0  0  0  0  0  0  0  0  0  0  0  0
   -4.2800   -0.3100    0.0000 C   0  0  0  0  0  0  0  0  0  0  0  0
   -4.2800   -1.8100    0.0000 C   0  0  0  0  0  0  0  0  0  0  0  0
   -5.5789   -2.5602    0.0000 O   0  0  0  0  0  0  0  0  0  0  0  0
   -2.9800   -2.5600    0.0000 C   0  0  0  0  0  0  0  0  0  0  0  0
   -1.6800   -1.8100    0.0000 C   0  0  0  0  0  0  0  0  0  0  0  0
   -0.3800   -2.5600    0.0000 C   0  0  0  0  0  0  0  0  0  0  0  0
    0.9200   -1.8100    0.0000 C   0  0  0  0  0  0  0  0  0  0  0  0
    0.9200   -0.3100    0.0000 C   0  0  1  0  0  0  0  0  0  0  0  0
    2.2200    0.4400    0.0000 C   0  0  2  0  0  0  0  0  0  0  0  0
    3.6500   -0.0200    0.0000 C   0  0  0  0  0  0  0  0  0  0  0  0
    4.5300    1.1900    0.0000 C   0  0  0  0  0  0  0  0  0  0  0  0
    3.6500    2.4000    0.0000 C   0  0  2  0  0  0  0  0  0  0  0  0
    4.1153    3.8260    0.0000 O   0  0  0  0  0  0  0  0  0  0  0  0
   -0.3800   -4.0600    0.0000 O   0  0  0  0  0  0  0  0  0  0  0  0
  2  1  1  1  0  0  0
  2  3  1  0  0  0  0
  3  4  2  0  0  0  0
  4  5  1  0  0  0  0
  5  6  2  0  0  0  0
  6  7  1  0  0  0  0
  7  8  1  0  0  0  0
  8  9  1  0  0  0  0
  9 10  2  0  0  0  0
  9 11  1  0  0  0  0
 11 12  2  0  0  0  0
  6 12  1  0  0  0  0
 12 13  1  0  0  0  0
 13 14  1  0  0  0  0
 15 14  1  6  0  0  0
  5 15  1  0  0  0  0
 15 16  1  0  0  0  0
  2 16  1  0  0  0  0
 16 17  1  1  0  0  0
 17 18  1  0  0  0  0
 18 19  1  0  0  0  0
  2 19  1  0  0  0  0
 19 20  1  1  0  0  0
 21 13  1  0  0  0  0
M  END
> <InChI>
InChI=1S/C18H22O3/c1-18-7-6-12-11-3-2-10(19)8-14(11)16(20)9-13(12)15(18)4-5-17(18)21/h6-8,13,15-17,20-21H,2-5,9H2,1H3/t13-,15+,16?,17+,18+/m1/s1

> <InChIKey>
WTDXYQIRZWMDJJ-UVYCUMSOSA-N

> <SMILES>
C[C@]12C=CC3=C4CCC(=O)C=C4C(C[C@H]3[C@@H]1CC[C@@H]2O)O

> <Synonyms>


> <PUBCHEM_CID>


> <Molecular_formula>
C18H22O3

> <Major_Isotope_Mass>
286.15689456399997

> <ALogP>
1.5251999999999974

> <Lipinski_Violations>
0

> <Insecticide_Likeness_Violations>
0

> <Post_Em_Herbicide_Likeness_Violations>
0

> <Metabolite_ID>
BTM00007

> <Reaction>
6-Hydroxylation of sterol

> <Reaction_ID>
BTMR0402

> <Enzyme(s)>
CYP2A6
CYP2B6
CYP2C8
CYP2C9
CYP2C19
CYP2D6
CYP3A4

> <Biosystem>
HUMAN

> <Precursor_ID>


> <Precursor_SMILES>
C[C@]12C=CC3=C4CCC(=O)C=C4CC[C@H]3[C@@H]1CC[C@@H]2O

> <Precursor_InChI>
InChI=1S/C18H22O2/c1-18-9-8-14-13-5-3-12(19)10-11(13)2-4-15(14)16(18)6-7-17(18)20/h8-10,15-17,20H,2-7H2,1H3/t15-,16+,17+,18+/m1/s1

> <Precursor_InChIKey>
MEHHPFQKXOUFFV-OWSLCNJRSA-N

> <Precursor_ALogP>


> <Precursor_Major_Isotope_Mass>
270.1619

$$$$
BTM00008
  CDK     09122622442D

 21 24  0  0  1  0  0  0  0  0999 V2000
    2.3365    3.1918    0.0000 C   0  0  0  0  0  0  0  0  0  0  0  0
    2.1800    1.7000    0.0000 C   0  0  2  0  0  0  0  0  0  0  0  0
    0.8900    2.4500    0.0000 C   0  0  0  0  0  0  0  0  0  0  0  0
   -0.4100    1.7000    0.0000 C   0  0  0  0  0  0  0  0  0  0  0  0
   -0.4100    0.2000    0.0000 C   0  0  0  0  0  0  0  0  0  0  0  0
   -1.7100   -0.5500    0.0000 C   0  0  0  0  0  0  0  0  0  0  0  0
   -3.0100    0.2000    0.0000 C   0  0  0  0  0  0  0  0  0  0  0  0
   -4.3100   -0.5500    0.0000 C   0  0  0  0  0  0  0  0  0  0  0  0
   -4.3100   -2.0500    0.0000 C   0  0  0  0  0  0  0  0  0  0  0  0
   -5.6089   -2.8002    0.0000 O   0  0  0  0  0  0  0  0  0  0  0  0
   -3.0100   -2.8000    0.0000 C   0  0  0  0  0  0  0  0  0  0  0  0
   -1.7100   -2.0500    0.0000 C   0  0  0  0  0  0  0  0  0  0  0  0
   -0.4100   -2.8000    0.0000 C   0  0  0  0  0  0  0  0  0  0  0  0
    0.8900   -2.0500    0.0000 C   0  0  0  0  0  0  0  0  0  0  0  0
    0.8900   -0.5500    0.0000 C   0  0  1  0  0  0  0  0  0  0  0  0
    2.1800    0.2000    0.0000 C   0  0  2  0  0  0  0  0  0  0  0  0
    3.6100   -0.2600    0.0000 C   0  0  0  0  0  0  0  0  0  0  0  0
    4.4900    0.9500    0.0000 C   0  0  0  0  0  0  0  0  0  0  0  0
    3.6100    2.1700    0.0000 C   0  0  2  0  0  0  0  0  0  0  0  0
    4.0736    3.5966    0.0000 O   0  0  0  0  0  0  0  0  0  0  0  0
    1.1228    4.0733    0.0000 O   0  0  0  0  0  0  0  0  0  0  0  0
  2  1  1  1  0  0  0
  2  3  1  0  0  0  0
  3  4  2  0  0  0  0
  4  5  1  0  0  0  0
  5  6  2  0  0  0  0
  6  7  1  0  0  0  0
  7  8  1  0  0  0  0
  8  9  1  0  0  0  0
  9 10  2  0  0  0  0
  9 11  1  0  0  0  0
 11 12  2  0  0  0  0
  6 12  1  0  0  0  0
 12 13  1  0  0  0  0
 13 14  1  0  0  0  0
 15 14  1  6  0  0  0
  5 15  1  0  0  0  0
 15 16  1  0  0  0  0
  2 16  1  0  0  0  0
 16 17  1  1  0  0  0
 17 18  1  0  0  0  0
 18 19  1  0  0  0  0
  2 19  1  0  0  0  0
 19 20  1  1  0  0  0
 21  1  1  0  0  0  0
M  END
> <InChI>
InChI=1S/C18H22O3/c19-10-18-8-7-14-13-4-2-12(20)9-11(13)1-3-15(14)16(18)5-6-17(18)21/h7-9,15-17,19,21H,1-6,10H2/t15-,16+,17+,18-/m1/s1

> <InChIKey>
RYVYUIVQKAJDFN-VSZNYVQBSA-N

> <SMILES>
C([C@]12C=CC3=C4CCC(=O)C=C4CC[C@H]3[C@@H]1CC[C@@H]2O)O

> <Synonyms>


> <PUBCHEM_CID>


> <Molecular_formula>
C18H22O3

> <Major_Isotope_Mass>
286.15689456399997

> <ALogP>
1.5363999999999967

> <Lipinski_Violations>
0

> <Insecticide_Likeness_Violations>
0

> <Post_Em_Herbicide_Likeness_Violations>
0

> <Metabolite_ID>
BTM00008

> <Reaction>
Hydroxylation of methyl carbon adjacent to aliphatic ring

> <Reaction_ID>
BTMR0054

> <Enzyme(s)>
CYP2B6
CYP2C8
CYP2C9
CYP2C19
CYP2D6
CYP3A4

> <Biosystem>
HUMAN

> <Precursor_ID>


> <Precursor_SMILES>
C[C@]12C=CC3=C4CCC(=O)C=C4CC[C@H]3[C@@H]1CC[C@@H]2O

> <Precursor_InChI>
InChI=1S/C18H22O2/c1-18-9-8-14-13-5-3-12(19)10-11(13)2-4-15(14)16(18)6-7-17(18)20/h8-10,15-17,20H,2-7H2,1H3/t15-,16+,17+,18+/m1/s1

> <Precursor_InChIKey>
MEHHPFQKXOUFFV-OWSLCNJRSA-N

> <Precursor_ALogP>


> <Precursor_Major_Isotope_Mass>
270.1619

$$$$
BTM00009
  CDK     09122622442D

 20 23  0  0  1  0  0  0  0  0999 V2000
    2.3787    3.4316    0.0000 C   0  0  0  0  0  0  0  0  0  0  0  0
    2.2200    1.9400    0.0000 C   0  0  2  0  0  0  0  0  0  0  0  0
    0.9200    2.6900    0.0000 C   0  0  0  0  0  0  0  0  0  0  0  0
   -0.3800    1.9400    0.0000 C   0  0  0  0  0  0  0  0  0  0  0  0
   -0.3800    0.4400    0.0000 C   0  0  0  0  0  0  0  0  0  0  0  0
   -1.6800   -0.3100    0.0000 C   0  0  0  0  0  0  0  0  0  0  0  0
   -2.9800    0.4400    0.0000 C   0  0  0  0  0  0  0  0  0  0  0  0
   -4.2800   -0.3100    0.0000 C   0  0  0  0  0  0  0  0  0  0  0  0
   -4.2800   -1.8100    0.0000 C   0  0  0  0  0  0  0  0  0  0  0  0
   -5.5789   -2.5602    0.0000 O   0  0  0  0  0  0  0  0  0  0  0  0
   -2.9800   -2.5600    0.0000 C   0  0  0  0  0  0  0  0  0  0  0  0
   -1.6800   -1.8100    0.0000 C   0  0  0  0  0  0  0  0  0  0  0  0
   -0.3800   -2.5600    0.0000 C   0  0  0  0  0  0  0  0  0  0  0  0
    0.9200   -1.8100    0.0000 C   0  0  0  0  0  0  0  0  0  0  0  0
    0.9200   -0.3100    0.0000 C   0  0  1  0  0  0  0  0  0  0  0  0
    2.2200    0.4400    0.0000 C   0  0  2  0  0  0  0  0  0  0  0  0
    3.6500   -0.0200    0.0000 C   0  0  0  0  0  0  0  0  0  0  0  0
    4.5300    1.1900    0.0000 C   0  0  0  0  0  0  0  0  0  0  0  0
    3.6500    2.4000    0.0000 C   0  0  2  0  0  0  0  0  0  0  0  0
    4.1153    3.8260    0.0000 O   0  0  0  0  0  0  0  0  0  0  0  0
  2  1  1  1  0  0  0
  2  3  1  0  0  0  0
  3  4  2  0  0  0  0
  4  5  1  0  0  0  0
  5  6  2  0  0  0  0
  6  7  1  0  0  0  0
  7  8  1  0  0  0  0
  8  9  1  0  0  0  0
  9 10  2  0  0  0  0
  9 11  1  0  0  0  0
 11 12  1  0  0  0  0
  6 12  1  0  0  0  0
 12 13  1  0  0  0  0
 13 14  1  0  0  0  0
 15 14  1  6  0  0  0
  5 15  1  0  0  0  0
 15 16  1  0  0  0  0
  2 16  1  0  0  0  0
 16 17  1  1  0  0  0
 17 18  1  0  0  0  0
 18 19  1  0  0  0  0
  2 19  1  0  0  0  0
 19 20  1  1  0  0  0
M  END
> <InChI>
InChI=1S/C18H24O2/c1-18-9-8-14-13-5-3-12(19)10-11(13)2-4-15(14)16(18)6-7-17(18)20/h8-9,11,15-17,20H,2-7,10H2,1H3/t11?,15-,16+,17+,18+/m1/s1

> <InChIKey>
RZPLPTRQTZTSGL-JQDICCHKSA-N

> <SMILES>
C[C@]12C=CC3=C4CCC(=O)CC4CC[C@H]3[C@@H]1CC[C@@H]2O

> <Synonyms>


> <PUBCHEM_CID>


> <Molecular_formula>
C18H24O2

> <Major_Isotope_Mass>
272.177630008

> <ALogP>
2.4556999999999993

> <Lipinski_Violations>
0

> <Insecticide_Likeness_Violations>
0

> <Post_Em_Herbicide_Likeness_Violations>
0

> <Metabolite_ID>
BTM00009

> <Reaction>
Reduction of alpha,beta-unsaturated carbon-carbon double bond adjacent to electron withdrawing group

> <Reaction_ID>
BTMR1209

> <Enzyme(s)>
EC 1.6.99.1

> <Biosystem>
GUTMICRO

> <Precursor_ID>


> <Precursor_SMILES>
C[C@]12C=CC3=C4CCC(=O)C=C4CC[C@H]3[C@@H]1CC[C@@H]2O

> <Precursor_InChI>
InChI=1S/C18H22O2/c1-18-9-8-14-13-5-3-12(19)10-11(13)2-4-15(14)16(18)6-7-17(18)20/h8-10,15-17,20H,2-7H2,1H3/t15-,16+,17+,18+/m1/s1

> <Precursor_InChIKey>
MEHHPFQKXOUFFV-OWSLCNJRSA-N

> <Precursor_ALogP>


> <Precursor_Major_Isotope_Mass>
270.1619

$$$$
