BTM00001
  CDK     09122622082D

 26 30  0  0  1  0  0  0  0  0999 V2000
    7.5243    3.1929    0.0000 C   0  0  0  0  0  0  0  0  0  0  0  0
    6.2280    2.4382    0.0000 C   0  0  0  0  0  0  0  0  0  0  0  0
    4.9317    1.6835    0.0000 C   0  0  2  0  0  0  0  0  0  0  0  0
    3.9280    3.9295    0.0000 O   0  0  0  0  0  0  0  0  0  0  0  0
    5.8217    0.4735    0.0000 C   0  0  0  0  0  0  0  0  0  0  0  0
    4.9317   -0.7365    0.0000 C   0  0  0  0  0  0  0  0  0  0  0  0
    3.5117   -0.2765    0.0000 C   0  0  1  0  0  0  0  0  0  0  0  0
    2.2117   -1.0265    0.0000 C   0  0  2  0  0  0  0  0  0  0  0  0
    2.2117   -2.5265    0.0000 C   0  0  0  0  0  0  0  0  0  0  0  0
    0.9117   -3.2765    0.0000 C   0  0  0  0  0  0  0  0  0  0  0  0
   -0.3883   -2.5265    0.0000 C   0  0  0  0  0  0  0  0  0  0  0  0
   -1.6883   -3.2765    0.0000 C   0  0  0  0  0  0  0  0  0  0  0  0
   -2.9883   -2.5265    0.0000 C   0  0  0  0  0  0  0  0  0  0  0  0
   -4.4083   -2.9865    0.0000 O   0  0  0  0  0  0  0  0  0  0  0  0
   -5.2983   -1.7765    0.0000 N   0  0  0  0  0  0  0  0  0  0  0  0
   -4.4083   -0.5665    0.0000 C   0  0  0  0  0  0  0  0  0  0  0  0
   -2.9883   -1.0265    0.0000 C   0  0  0  0  0  0  0  0  0  0  0  0
   -1.6883   -0.2765    0.0000 C   0  0  0  0  0  0  0  0  0  0  0  0
   -0.3883   -1.0265    0.0000 C   0  0  1  0  0  0  0  0  0  0  0  0
   -0.3883    0.4735    0.0000 C   0  0  0  0  0  0  0  0  0  0  0  0
    0.9117   -0.2765    0.0000 C   0  0  1  0  0  0  0  0  0  0  0  0
    0.9117    1.2235    0.0000 C   0  0  0  0  0  0  0  0  0  0  0  0
    2.2117    1.9735    0.0000 C   0  0  0  0  0  0  0  0  0  0  0  0
    3.5117    1.2235    0.0000 C   0  0  2  0  0  0  0  0  0  0  0  0
    4.5137    0.1073    0.0000 C   0  0  0  0  0  0  0  0  0  0  0  0
   -0.3873    1.9737    0.0000 O   0  0  0  0  0  0  0  0  0  0  0  0
  1  2  3  0  0  0  0
  3  2  1  6  0  0  0
  3  4  1  1  0  0  0
  3  5  1  0  0  0  0
  5  6  1  0  0  0  0
  7  6  1  1  0  0  0
  7  8  1  0  0  0  0
  8  9  1  6  0  0  0
  9 10  1  0  0  0  0
 10 11  1  0  0  0  0
 11 12  2  0  0  0  0
 12 13  1  0  0  0  0
 13 14  1  0  0  0  0
 14 15  1  0  0  0  0
 15 16  2  0  0  0  0
 16 17  1  0  0  0  0
 13 17  2  0  0  0  0
 17 18  1  0  0  0  0
 18 19  1  0  0  0  0
 11 19  1  0  0  0  0
 19 20  1  1  0  0  0
 19 21  1  0  0  0  0
  8 21  1  0  0  0  0
 21 22  1  1  0  0  0
 22 23  1  0  0  0  0
 23 24  1  0  0  0  0
  7 24  1  0  0  0  0
  3 24  1  0  0  0  0
 24 25  1  1  0  0  0
 26 22  1  0  0  0  0
M  END
> <InChI>
InChI=1S/C22H27NO3/c1-4-22(25)8-7-16-15-6-5-14-9-18-13(12-23-26-18)10-20(14,2)19(15)17(24)11-21(16,22)3/h1,9,12,15-17,19,24-25H,5-8,10-11H2,2-3H3/t15-,16-,17?,19+,20-,21-,22-/m0/s1

> <InChIKey>
XQPFYUXVLNNKBL-PJMZTZNYSA-N

> <SMILES>
C#C[C@]1(O)CC[C@H]2[C@@H]3CCC4=CC=5ON=CC5C[C@]4(C)[C@H]3C(C[C@@]21C)O

> <Synonyms>


> <PUBCHEM_CID>


> <Molecular_formula>
C22H27NO3

> <Major_Isotope_Mass>
353.199093724

> <ALogP>
3.705199999999997

> <Lipinski_Violations>
0

> <Insecticide_Likeness_Violations>
0

> <Post_Em_Herbicide_Likeness_Violations>
0

> <Metabolite_ID>
BTM00001

> <Reaction>
11-beta-Hydroxylation of sterol

> <Reaction_ID>
BTMR0406

> <Enzyme(s)>
EC 1.14.15.4

> <Biosystem>
HUMAN

> <Precursor_ID>


> <Precursor_SMILES>
C#C[C@]1(O)CC[C@H]2[C@@H]3CCC4=CC=5ON=CC5C[C@]4(C)[C@H]3CC[C@@]21C

> <Precursor_InChI>
InChI=1S/C22H27NO2/c1-4-22(24)10-8-18-16-6-5-15-11-19-14(13-23-25-19)12-20(15,2)17(16)7-9-21(18,22)3/h1,11,13,16-18,24H,5-10,12H2,2-3H3/t16-,17+,18+,20+,21+,22+/m1/s1

> <Precursor_InChIKey>
POZRVZJJTULAOH-LHZXLZLDSA-N

> <Precursor_ALogP>


> <Precursor_Major_Isotope_Mass>
337.2041

$$$$
BTM00002
  CDK     09122622082D

 37 42  0  0  1  0  0  0  0  0999 V2000
    7.3285    3.6311    0.0000 C   0  0  0  0  0  0  0  0  0  0  0  0
    6.0322    2.8765    0.0000 C   0  0  0  0  0  0  0  0  0  0  0  0
    4.7358    2.1218    0.0000 C   0  0  2  0  0  0  0  0  0  0  0  0
    3.9280    3.9295    0.0000 O   0  0  0  0  0  0  0  0  0  0  0  0
    5.6258    0.9118    0.0000 C   0  0  0  0  0  0  0  0  0  0  0  0
    4.7358   -0.2982    0.0000 C   0  0  0  0  0  0  0  0  0  0  0  0
    3.3158    0.1618    0.0000 C   0  0  1  0  0  0  0  0  0  0  0  0
    2.0158   -0.5882    0.0000 C   0  0  2  0  0  0  0  0  0  0  0  0
    2.0158   -2.0882    0.0000 C   0  0  0  0  0  0  0  0  0  0  0  0
    0.7158   -2.8382    0.0000 C   0  0  0  0  0  0  0  0  0  0  0  0
   -0.5842   -2.0882    0.0000 C   0  0  0  0  0  0  0  0  0  0  0  0
   -1.8842   -2.8382    0.0000 C   0  0  0  0  0  0  0  0  0  0  0  0
   -3.1842   -2.0882    0.0000 C   0  0  0  0  0  0  0  0  0  0  0  0
   -4.6042   -2.5482    0.0000 O   0  0  0  0  0  0  0  0  0  0  0  0
   -5.4942   -1.3382    0.0000 N   0  0  0  0  0  0  0  0  0  0  0  0
   -4.6042   -0.1282    0.0000 C   0  0  0  0  0  0  0  0  0  0  0  0
   -3.1842   -0.5882    0.0000 C   0  0  0  0  0  0  0  0  0  0  0  0
   -1.8842    0.1618    0.0000 C   0  0  0  0  0  0  0  0  0  0  0  0
   -0.5842   -0.5882    0.0000 C   0  0  1  0  0  0  0  0  0  0  0  0
   -0.5842    0.9118    0.0000 C   0  0  0  0  0  0  0  0  0  0  0  0
    0.7158    0.1618    0.0000 C   0  0  1  0  0  0  0  0  0  0  0  0
    0.7158    1.6618    0.0000 C   0  0  0  0  0  0  0  0  0  0  0  0
    2.0158    2.4118    0.0000 C   0  0  0  0  0  0  0  0  0  0  0  0
    3.3158    1.6618    0.0000 C   0  0  2  0  0  0  0  0  0  0  0  0
    3.4730    3.1535    0.0000 C   0  0  0  0  0  0  0  0  0  0  0  0
    2.7135    6.6675    0.0000 O   0  0  0  0  0  0  0  0  0  0  0  0
    4.2048    6.5067    0.0000 C   0  0  0  0  0  0  0  0  0  0  0  0
    5.1042    7.7360    0.0000 C   0  0  0  0  0  0  0  0  0  0  0  0
    4.5015    9.1096    0.0000 O   0  0  0  0  0  0  0  0  0  0  0  0
    6.6006    7.5673    0.0000 C   0  0  0  0  0  0  0  0  0  0  0  0
    7.4881    8.7766    0.0000 O   0  0  0  0  0  0  0  0  0  0  0  0
    7.2038    6.2049    0.0000 C   0  0  0  0  0  0  0  0  0  0  0  0
    6.3187    4.9928    0.0000 O   0  0  0  0  0  0  0  0  0  0  0  0
    4.8080    5.1442    0.0000 C   0  0  0  0  0  0  0  0  0  0  0  0
    8.6952    6.0447    0.0000 C   0  0  0  0  0  0  0  0  0  0  0  0
    9.5796    7.2563    0.0000 O   0  0  0  0  0  0  0  0  0  0  0  0
    9.3022    4.6730    0.0000 O   0  0  0  0  0  0  0  0  0  0  0  0
  1  2  3  0  0  0  0
  3  2  1  6  0  0  0
  3  4  1  1  0  0  0
  3  5  1  0  0  0  0
  5  6  1  0  0  0  0
  7  6  1  1  0  0  0
  7  8  1  0  0  0  0
  8  9  1  6  0  0  0
  9 10  1  0  0  0  0
 10 11  1  0  0  0  0
 11 12  2  0  0  0  0
 12 13  1  0  0  0  0
 13 14  1  0  0  0  0
 14 15  1  0  0  0  0
 15 16  2  0  0  0  0
 16 17  1  0  0  0  0
 13 17  2  0  0  0  0
 17 18  1  0  0  0  0
 18 19  1  0  0  0  0
 11 19  1  0  0  0  0
 19 20  1  1  0  0  0
 19 21  1  0  0  0  0
  8 21  1  0  0  0  0
 21 22  1  1  0  0  0
 22 23  1  0  0  0  0
 23 24  1  0  0  0  0
  7 24  1  0  0  0  0
  3 24  1  0  0  0  0
 24 25  1  1  0  0  0
 26 27  1  0  0  0  0
 27 28  1  0  0  0  0
 28 29  1  0  0  0  0
 28 30  1  0  0  0  0
 30 31  1  0  0  0  0
 30 32  1  0  0  0  0
 32 33  1  0  0  0  0
 33 34  1  0  0  0  0
 27 34  1  0  0  0  0
 34  4  1  0  0  0  0
 32 35  1  0  0  0  0
 35 36  1  0  0  0  0
 35 37  2  0  0  0  0
M  END
> <InChI>
InChI=1S/C28H35NO8/c1-4-28(36-25-22(32)20(30)21(31)23(35-25)24(33)34)10-8-18-16-6-5-15-11-19-14(13-29-37-19)12-26(15,2)17(16)7-9-27(18,28)3/h1,11,13,16-18,20-23,25,30-32H,5-10,12H2,2-3H3,(H,33,34)/t16-,17+,18+,20?,21?,22?,23?,25?,26+,27+,28+/m1/s1

> <InChIKey>
QZRFJEIMLRYBHZ-UMOMLQMZSA-N

> <SMILES>
C#C[C@]1(OC2OC(C(C(C2O)O)O)C(O)=O)CC[C@H]3[C@@H]4CCC5=CC=6ON=CC6C[C@]5(C)[C@H]4CC[C@@]31C

> <Synonyms>


> <PUBCHEM_CID>


> <Molecular_formula>
C28H35NO8

> <Major_Isotope_Mass>
513.23626708

> <ALogP>
3.3366

> <Lipinski_Violations>
1

> <Insecticide_Likeness_Violations>
1

> <Post_Em_Herbicide_Likeness_Violations>
1

> <Metabolite_ID>
BTM00002

> <Reaction>
17-OH-Glucuronidation of sterol

> <Reaction_ID>
BTMR0163

> <Enzyme(s)>
EC 2.4.1.17

> <Biosystem>
HUMAN

> <Precursor_ID>


> <Precursor_SMILES>
C#C[C@]1(O)CC[C@H]2[C@@H]3CCC4=CC=5ON=CC5C[C@]4(C)[C@H]3CC[C@@]21C

> <Precursor_InChI>
InChI=1S/C22H27NO2/c1-4-22(24)10-8-18-16-6-5-15-11-19-14(13-23-25-19)12-20(15,2)17(16)7-9-21(18,22)3/h1,11,13,16-18,24H,5-10,12H2,2-3H3/t16-,17+,18+,20+,21+,22+/m1/s1

> <Precursor_InChIKey>
POZRVZJJTULAOH-LHZXLZLDSA-N

> <Precursor_ALogP>


> <Precursor_Major_Isotope_Mass>
337.2041

$$$$
BTM00003
  CDK     09122622082D

 26 30  0  0  1  0  0  0  0  0999 V2000
    7.5243    3.1929    0.0000 C   0  0  0  0  0  0  0  0  0  0  0  0
    6.2280    2.4382    0.0000 C   0  0  0  0  0  0  0  0  0  0  0  0
    4.9317    1.6835    0.0000 C   0  0  2  0  0  0  0  0  0  0  0  0
    3.9280    3.9295    0.0000 O   0  0  0  0  0  0  0  0  0  0  0  0
    5.8217    0.4735    0.0000 C   0  0  0  0  0  0  0  0  0  0  0  0
    4.9317   -0.7365    0.0000 C   0  0  0  0  0  0  0  0  0  0  0  0
    3.5117   -0.2765    0.0000 C   0  0  1  0  0  0  0  0  0  0  0  0
    2.2117   -1.0265    0.0000 C   0  0  2  0  0  0  0  0  0  0  0  0
    2.2117   -2.5265    0.0000 C   0  0  0  0  0  0  0  0  0  0  0  0
    0.9117   -3.2765    0.0000 C   0  0  0  0  0  0  0  0  0  0  0  0
   -0.3883   -2.5265    0.0000 C   0  0  0  0  0  0  0  0  0  0  0  0
   -1.6883   -3.2765    0.0000 C   0  0  0  0  0  0  0  0  0  0  0  0
   -2.9883   -2.5265    0.0000 C   0  0  0  0  0  0  0  0  0  0  0  0
   -4.4083   -2.9865    0.0000 O   0  0  0  0  0  0  0  0  0  0  0  0
   -5.2983   -1.7765    0.0000 N   0  0  0  0  0  0  0  0  0  0  0  0
   -4.4083   -0.5665    0.0000 C   0  0  0  0  0  0  0  0  0  0  0  0
   -2.9883   -1.0265    0.0000 C   0  0  0  0  0  0  0  0  0  0  0  0
   -1.6883   -0.2765    0.0000 C   0  0  0  0  0  0  0  0  0  0  0  0
   -0.3883   -1.0265    0.0000 C   0  0  1  0  0  0  0  0  0  0  0  0
   -0.3883    0.4735    0.0000 C   0  0  0  0  0  0  0  0  0  0  0  0
    0.9117   -0.2765    0.0000 C   0  0  1  0  0  0  0  0  0  0  0  0
    0.9117    1.2235    0.0000 C   0  0  0  0  0  0  0  0  0  0  0  0
    2.2117    1.9735    0.0000 C   0  0  0  0  0  0  0  0  0  0  0  0
    3.5117    1.2235    0.0000 C   0  0  2  0  0  0  0  0  0  0  0  0
    4.5137    0.1073    0.0000 C   0  0  0  0  0  0  0  0  0  0  0  0
    7.3217    0.4735    0.0000 O   0  0  0  0  0  0  0  0  0  0  0  0
  1  2  3  0  0  0  0
  3  2  1  6  0  0  0
  3  4  1  1  0  0  0
  3  5  1  0  0  0  0
  5  6  1  0  0  0  0
  7  6  1  1  0  0  0
  7  8  1  0  0  0  0
  8  9  1  6  0  0  0
  9 10  1  0  0  0  0
 10 11  1  0  0  0  0
 11 12  2  0  0  0  0
 12 13  1  0  0  0  0
 13 14  1  0  0  0  0
 14 15  1  0  0  0  0
 15 16  2  0  0  0  0
 16 17  1  0  0  0  0
 13 17  2  0  0  0  0
 17 18  1  0  0  0  0
 18 19  1  0  0  0  0
 11 19  1  0  0  0  0
 19 20  1  1  0  0  0
 19 21  1  0  0  0  0
  8 21  1  0  0  0  0
 21 22  1  1  0  0  0
 22 23  1  0  0  0  0
 23 24  1  0  0  0  0
  7 24  1  0  0  0  0
  3 24  1  0  0  0  0
 24 25  1  1  0  0  0
 26  5  1  0  0  0  0
M  END
> <InChI>
InChI=1S/C22H27NO3/c1-4-22(25)19(24)10-17-15-6-5-14-9-18-13(12-23-26-18)11-20(14,2)16(15)7-8-21(17,22)3/h1,9,12,15-17,19,24-25H,5-8,10-11H2,2-3H3/t15-,16+,17+,19?,20+,21+,22+/m1/s1

> <InChIKey>
SWPQQDQFRVTYSD-QSNODZGHSA-N

> <SMILES>
C#C[C@]1(O)C(C[C@H]2[C@@H]3CCC4=CC=5ON=CC5C[C@]4(C)[C@H]3CC[C@@]21C)O

> <Synonyms>


> <PUBCHEM_CID>


> <Molecular_formula>
C22H27NO3

> <Major_Isotope_Mass>
353.199093724

> <ALogP>
3.9076999999999966

> <Lipinski_Violations>
0

> <Insecticide_Likeness_Violations>
0

> <Post_Em_Herbicide_Likeness_Violations>
0

> <Metabolite_ID>
BTM00003

> <Reaction>
16-Hydroxylation of sterol

> <Reaction_ID>
BTMR0407

> <Enzyme(s)>
CYP1A2
CYP2A6
CYP2B6
CYP2C8
CYP2C9
CYP2C19
CYP2D6
CYP2E1
CYP3A4

> <Biosystem>
HUMAN

> <Precursor_ID>


> <Precursor_SMILES>
C#C[C@]1(O)CC[C@H]2[C@@H]3CCC4=CC=5ON=CC5C[C@]4(C)[C@H]3CC[C@@]21C

> <Precursor_InChI>
InChI=1S/C22H27NO2/c1-4-22(24)10-8-18-16-6-5-15-11-19-14(13-23-25-19)12-20(15,2)17(16)7-9-21(18,22)3/h1,11,13,16-18,24H,5-10,12H2,2-3H3/t16-,17+,18+,20+,21+,22+/m1/s1

> <Precursor_InChIKey>
POZRVZJJTULAOH-LHZXLZLDSA-N

> <Precursor_ALogP>


> <Precursor_Major_Isotope_Mass>
337.2041

$$$$
BTM00004
  CDK     09122622082D

 26 30  0  0  1  0  0  0  0  0999 V2000
    7.5243    3.1929    0.0000 C   0  0  0  0  0  0  0  0  0  0  0  0
    6.2280    2.4382    0.0000 C   0  0  0  0  0  0  0  0  0  0  0  0
    4.9317    1.6835    0.0000 C   0  0  2  0  0  0  0  0  0  0  0  0
    3.9280    3.9295    0.0000 O   0  0  0  0  0  0  0  0  0  0  0  0
    5.8217    0.4735    0.0000 C   0  0  0  0  0  0  0  0  0  0  0  0
    4.9317   -0.7365    0.0000 C   0  0  0  0  0  0  0  0  0  0  0  0
    3.5117   -0.2765    0.0000 C   0  0  1  0  0  0  0  0  0  0  0  0
    2.2117   -1.0265    0.0000 C   0  0  2  0  0  0  0  0  0  0  0  0
    2.2117   -2.5265    0.0000 C   0  0  0  0  0  0  0  0  0  0  0  0
    0.9117   -3.2765    0.0000 C   0  0  0  0  0  0  0  0  0  0  0  0
   -0.3883   -2.5265    0.0000 C   0  0  0  0  0  0  0  0  0  0  0  0
   -1.6883   -3.2765    0.0000 C   0  0  0  0  0  0  0  0  0  0  0  0
   -2.9883   -2.5265    0.0000 C   0  0  0  0  0  0  0  0  0  0  0  0
   -4.4083   -2.9865    0.0000 O   0  0  0  0  0  0  0  0  0  0  0  0
   -5.2983   -1.7765    0.0000 N   0  0  0  0  0  0  0  0  0  0  0  0
   -4.4083   -0.5665    0.0000 C   0  0  0  0  0  0  0  0  0  0  0  0
   -2.9883   -1.0265    0.0000 C   0  0  0  0  0  0  0  0  0  0  0  0
   -1.6883   -0.2765    0.0000 C   0  0  0  0  0  0  0  0  0  0  0  0
   -0.3883   -1.0265    0.0000 C   0  0  1  0  0  0  0  0  0  0  0  0
   -0.3883    0.4735    0.0000 C   0  0  0  0  0  0  0  0  0  0  0  0
    0.9117   -0.2765    0.0000 C   0  0  1  0  0  0  0  0  0  0  0  0
    0.9117    1.2235    0.0000 C   0  0  0  0  0  0  0  0  0  0  0  0
    2.2117    1.9735    0.0000 C   0  0  0  0  0  0  0  0  0  0  0  0
    3.5117    1.2235    0.0000 C   0  0  2  0  0  0  0  0  0  0  0  0
    4.5137    0.1073    0.0000 C   0  0  0  0  0  0  0  0  0  0  0  0
   -1.6883   -4.7765    0.0000 O   0  0  0  0  0  0  0  0  0  0  0  0
  1  2  3  0  0  0  0
  3  2  1  6  0  0  0
  3  4  1  1  0  0  0
  3  5  1  0  0  0  0
  5  6  1  0  0  0  0
  7  6  1  1  0  0  0
  7  8  1  0  0  0  0
  8  9  1  6  0  0  0
  9 10  1  0  0  0  0
 10 11  1  0  0  0  0
 11 12  2  0  0  0  0
 12 13  1  0  0  0  0
 13 14  1  0  0  0  0
 14 15  1  0  0  0  0
 15 16  2  0  0  0  0
 16 17  1  0  0  0  0
 13 17  2  0  0  0  0
 17 18  1  0  0  0  0
 18 19  1  0  0  0  0
 11 19  1  0  0  0  0
 19 20  1  1  0  0  0
 19 21  1  0  0  0  0
  8 21  1  0  0  0  0
 21 22  1  1  0  0  0
 22 23  1  0  0  0  0
 23 24  1  0  0  0  0
  7 24  1  0  0  0  0
  3 24  1  0  0  0  0
 24 25  1  1  0  0  0
 26 12  1  0  0  0  0
M  END
> <InChI>
InChI=1S/C22H27NO3/c1-4-22(25)10-8-16-14-5-6-17-18(24)19-13(12-23-26-19)11-20(17,2)15(14)7-9-21(16,22)3/h1,12,14-16,24-25H,5-11H2,2-3H3/t14-,15+,16+,20-,21+,22+/m1/s1

> <InChIKey>
OPHBCXCPEILBMK-OFUYBIASSA-N

> <SMILES>
C#C[C@]1(O)CC[C@H]2[C@@H]3CCC4=C(C=5ON=CC5C[C@]4(C)[C@H]3CC[C@@]21C)O

> <Synonyms>


> <PUBCHEM_CID>


> <Molecular_formula>
C22H27NO3

> <Major_Isotope_Mass>
353.199093724

> <ALogP>
4.3115000000000006

> <Lipinski_Violations>
0

> <Insecticide_Likeness_Violations>
0

> <Post_Em_Herbicide_Likeness_Violations>
0

> <Metabolite_ID>
BTM00004

> <Reaction>
4-Hydroxylation of sterol

> <Reaction_ID>
BTMR0400

> <Enzyme(s)>
CYP1A2
CYP3A4

> <Biosystem>
HUMAN

> <Precursor_ID>


> <Precursor_SMILES>
C#C[C@]1(O)CC[C@H]2[C@@H]3CCC4=CC=5ON=CC5C[C@]4(C)[C@H]3CC[C@@]21C

> <Precursor_InChI>
InChI=1S/C22H27NO2/c1-4-22(24)10-8-18-16-6-5-15-11-19-14(13-23-25-19)12-20(15,2)17(16)7-9-21(18,22)3/h1,11,13,16-18,24H,5-10,12H2,2-3H3/t16-,17+,18+,20+,21+,22+/m1/s1

> <Precursor_InChIKey>
POZRVZJJTULAOH-LHZXLZLDSA-N

> <Precursor_ALogP>


> <Precursor_Major_Isotope_Mass>
337.2041

$$$$
BTM00005
  CDK     09122622082D

 26 30  0  0  1  0  0  0  0  0999 V2000
    7.5243    3.1929    0.0000 C   0  0  0  0  0  0  0  0  0  0  0  0
    6.2280    2.4382    0.0000 C   0  0  0  0  0  0  0  0  0  0  0  0
    4.9317    1.6835    0.0000 C   0  0  2  0  0  0  0  0  0  0  0  0
    3.9280    3.9295    0.0000 O   0  0  0  0  0  0  0  0  0  0  0  0
    5.8217    0.4735    0.0000 C   0  0  0  0  0  0  0  0  0  0  0  0
    4.9317   -0.7365    0.0000 C   0  0  0  0  0  0  0  0  0  0  0  0
    3.5117   -0.2765    0.0000 C   0  0  1  0  0  0  0  0  0  0  0  0
    2.2117   -1.0265    0.0000 C   0  0  2  0  0  0  0  0  0  0  0  0
    2.2117   -2.5265    0.0000 C   0  0  0  0  0  0  0  0  0  0  0  0
    0.9117   -3.2765    0.0000 C   0  0  0  0  0  0  0  0  0  0  0  0
   -0.3883   -2.5265    0.0000 C   0  0  0  0  0  0  0  0  0  0  0  0
   -1.6883   -3.2765    0.0000 C   0  0  0  0  0  0  0  0  0  0  0  0
   -2.9883   -2.5265    0.0000 C   0  0  0  0  0  0  0  0  0  0  0  0
   -4.4083   -2.9865    0.0000 O   0  0  0  0  0  0  0  0  0  0  0  0
   -5.2983   -1.7765    0.0000 N   0  0  0  0  0  0  0  0  0  0  0  0
   -4.4083   -0.5665    0.0000 C   0  0  0  0  0  0  0  0  0  0  0  0
   -2.9883   -1.0265    0.0000 C   0  0  0  0  0  0  0  0  0  0  0  0
   -1.6883   -0.2765    0.0000 C   0  0  0  0  0  0  0  0  0  0  0  0
   -0.3883   -1.0265    0.0000 C   0  0  1  0  0  0  0  0  0  0  0  0
   -0.3883    0.4735    0.0000 C   0  0  0  0  0  0  0  0  0  0  0  0
    0.9117   -0.2765    0.0000 C   0  0  1  0  0  0  0  0  0  0  0  0
    0.9117    1.2235    0.0000 C   0  0  0  0  0  0  0  0  0  0  0  0
    2.2117    1.9735    0.0000 C   0  0  0  0  0  0  0  0  0  0  0  0
    3.5117    1.2235    0.0000 C   0  0  2  0  0  0  0  0  0  0  0  0
    4.5137    0.1073    0.0000 C   0  0  0  0  0  0  0  0  0  0  0  0
    0.9117   -4.7765    0.0000 O   0  0  0  0  0  0  0  0  0  0  0  0
  1  2  3  0  0  0  0
  3  2  1  6  0  0  0
  3  4  1  1  0  0  0
  3  5  1  0  0  0  0
  5  6  1  0  0  0  0
  7  6  1  1  0  0  0
  7  8  1  0  0  0  0
  8  9  1  6  0  0  0
  9 10  1  0  0  0  0
 10 11  1  0  0  0  0
 11 12  2  0  0  0  0
 12 13  1  0  0  0  0
 13 14  1  0  0  0  0
 14 15  1  0  0  0  0
 15 16  2  0  0  0  0
 16 17  1  0  0  0  0
 13 17  2  0  0  0  0
 17 18  1  0  0  0  0
 18 19  1  0  0  0  0
 11 19  1  0  0  0  0
 19 20  1  1  0  0  0
 19 21  1  0  0  0  0
  8 21  1  0  0  0  0
 21 22  1  1  0  0  0
 22 23  1  0  0  0  0
 23 24  1  0  0  0  0
  7 24  1  0  0  0  0
  3 24  1  0  0  0  0
 24 25  1  1  0  0  0
 26 10  1  0  0  0  0
M  END
> <InChI>
InChI=1S/C22H27NO3/c1-4-22(25)8-6-16-14-9-18(24)17-10-19-13(12-23-26-19)11-20(17,2)15(14)5-7-21(16,22)3/h1,10,12,14-16,18,24-25H,5-9,11H2,2-3H3/t14-,15+,16+,18?,20-,21+,22+/m1/s1

> <InChIKey>
JQFKSQHWPCRJDM-VQCCXAPKSA-N

> <SMILES>
C#C[C@]1(O)CC[C@H]2[C@@H]3CC(C4=CC=5ON=CC5C[C@]4(C)[C@H]3CC[C@@]21C)O

> <Synonyms>


> <PUBCHEM_CID>


> <Molecular_formula>
C22H27NO3

> <Major_Isotope_Mass>
353.199093724

> <ALogP>
3.772699999999997

> <Lipinski_Violations>
0

> <Insecticide_Likeness_Violations>
0

> <Post_Em_Herbicide_Likeness_Violations>
0

> <Metabolite_ID>
BTM00005

> <Reaction>
6-Hydroxylation of sterol

> <Reaction_ID>
BTMR0402

> <Enzyme(s)>
CYP2A6
CYP2B6
CYP2C8
CYP2C9
CYP2C19
CYP2D6
CYP3A4

> <Biosystem>
HUMAN

> <Precursor_ID>


> <Precursor_SMILES>
C#C[C@]1(O)CC[C@H]2[C@@H]3CCC4=CC=5ON=CC5C[C@]4(C)[C@H]3CC[C@@]21C

> <Precursor_InChI>
InChI=1S/C22H27NO2/c1-4-22(24)10-8-18-16-6-5-15-11-19-14(13-23-25-19)12-20(15,2)17(16)7-9-21(18,22)3/h1,11,13,16-18,24H,5-10,12H2,2-3H3/t16-,17+,18+,20+,21+,22+/m1/s1

> <Precursor_InChIKey>
POZRVZJJTULAOH-LHZXLZLDSA-N

> <Precursor_ALogP>


> <Precursor_Major_Isotope_Mass>
337.2041

$$$$
BTM00006
  CDK     09122622082D

 26 30  0  0  1  0  0  0  0  0999 V2000
    7.1326    4.0694    0.0000 C   0  0  0  0  0  0  0  0  0  0  0  0
    5.8363    3.3147    0.0000 C   0  0  0  0  0  0  0  0  0  0  0  0
    4.5400    2.5600    0.0000 C   0  0  2  0  0  0  0  0  0  0  0  0
    4.1751    4.0149    0.0000 O   0  0  0  0  0  0  0  0  0  0  0  0
    5.4300    1.3500    0.0000 C   0  0  0  0  0  0  0  0  0  0  0  0
    4.5400    0.1400    0.0000 C   0  0  0  0  0  0  0  0  0  0  0  0
    3.1200    0.6000    0.0000 C   0  0  1  0  0  0  0  0  0  0  0  0
    1.8200   -0.1500    0.0000 C   0  0  2  0  0  0  0  0  0  0  0  0
    1.8200   -1.6500    0.0000 C   0  0  0  0  0  0  0  0  0  0  0  0
    0.5200   -2.4000    0.0000 C   0  0  0  0  0  0  0  0  0  0  0  0
   -0.7800   -1.6500    0.0000 C   0  0  0  0  0  0  0  0  0  0  0  0
   -2.0800   -2.4000    0.0000 C   0  0  0  0  0  0  0  0  0  0  0  0
   -3.3800   -1.6500    0.0000 C   0  0  0  0  0  0  0  0  0  0  0  0
   -4.8000   -2.1100    0.0000 O   0  0  0  0  0  0  0  0  0  0  0  0
   -5.6900   -0.9000    0.0000 N   0  0  0  0  0  0  0  0  0  0  0  0
   -4.8000    0.3100    0.0000 C   0  0  0  0  0  0  0  0  0  0  0  0
   -3.3800   -0.1500    0.0000 C   0  0  0  0  0  0  0  0  0  0  0  0
   -2.0800    0.6000    0.0000 C   0  0  0  0  0  0  0  0  0  0  0  0
   -0.7800   -0.1500    0.0000 C   0  0  1  0  0  0  0  0  0  0  0  0
   -0.7800    1.3500    0.0000 C   0  0  0  0  0  0  0  0  0  0  0  0
    0.5200    0.6000    0.0000 C   0  0  1  0  0  0  0  0  0  0  0  0
    0.5200    2.1000    0.0000 C   0  0  0  0  0  0  0  0  0  0  0  0
    1.8200    2.8500    0.0000 C   0  0  0  0  0  0  0  0  0  0  0  0
    3.1200    2.1000    0.0000 C   0  0  2  0  0  0  0  0  0  0  0  0
    3.2772    3.5917    0.0000 C   0  0  0  0  0  0  0  0  0  0  0  0
    2.0639    4.4738    0.0000 O   0  0  0  0  0  0  0  0  0  0  0  0
  1  2  3  0  0  0  0
  3  2  1  6  0  0  0
  3  4  1  1  0  0  0
  3  5  1  0  0  0  0
  5  6  1  0  0  0  0
  7  6  1  1  0  0  0
  7  8  1  0  0  0  0
  8  9  1  6  0  0  0
  9 10  1  0  0  0  0
 10 11  1  0  0  0  0
 11 12  2  0  0  0  0
 12 13  1  0  0  0  0
 13 14  1  0  0  0  0
 14 15  1  0  0  0  0
 15 16  2  0  0  0  0
 16 17  1  0  0  0  0
 13 17  2  0  0  0  0
 17 18  1  0  0  0  0
 18 19  1  0  0  0  0
 11 19  1  0  0  0  0
 19 20  1  1  0  0  0
 19 21  1  0  0  0  0
  8 21  1  0  0  0  0
 21 22  1  1  0  0  0
 22 23  1  0  0  0  0
 23 24  1  0  0  0  0
  7 24  1  0  0  0  0
  3 24  1  0  0  0  0
 24 25  1  1  0  0  0
 26 25  1  0  0  0  0
M  END
> <InChI>
InChI=1S/C22H27NO3/c1-3-22(25)9-7-18-16-5-4-15-10-19-14(12-23-26-19)11-20(15,2)17(16)6-8-21(18,22)13-24/h1,10,12,16-18,24-25H,4-9,11,13H2,2H3/t16-,17+,18+,20+,21-,22+/m1/s1

> <InChIKey>
FPVQXHOPSZIHJB-FYTAJMSISA-N

> <SMILES>
C#C[C@]1(O)CC[C@H]2[C@@H]3CCC4=CC=5ON=CC5C[C@]4(C)[C@H]3CC[C@@]21CO

> <Synonyms>


> <PUBCHEM_CID>


> <Molecular_formula>
C22H27NO3

> <Major_Isotope_Mass>
353.199093724

> <ALogP>
3.7838999999999983

> <Lipinski_Violations>
0

> <Insecticide_Likeness_Violations>
0

> <Post_Em_Herbicide_Likeness_Violations>
0

> <Metabolite_ID>
BTM00006

> <Reaction>
Hydroxylation of methyl carbon adjacent to aliphatic ring

> <Reaction_ID>
BTMR0054

> <Enzyme(s)>
CYP2B6
CYP2C8
CYP2C9
CYP2C19
CYP2D6
CYP3A4

> <Biosystem>
HUMAN

> <Precursor_ID>


> <Precursor_SMILES>
C#C[C@]1(O)CC[C@H]2[C@@H]3CCC4=CC=5ON=CC5C[C@]4(C)[C@H]3CC[C@@]21C

> <Precursor_InChI>
InChI=1S/C22H27NO2/c1-4-22(24)10-8-18-16-6-5-15-11-19-14(13-23-25-19)12-20(15,2)17(16)7-9-21(18,22)3/h1,11,13,16-18,24H,5-10,12H2,2-3H3/t16-,17+,18+,20+,21+,22+/m1/s1

> <Precursor_InChIKey>
POZRVZJJTULAOH-LHZXLZLDSA-N

> <Precursor_ALogP>


> <Precursor_Major_Isotope_Mass>
337.2041

$$$$
BTM00007
  CDK     09122622082D

 26 30  0  0  1  0  0  0  0  0999 V2000
    7.5243    3.1929    0.0000 C   0  0  0  0  0  0  0  0  0  0  0  0
    6.2280    2.4382    0.0000 C   0  0  0  0  0  0  0  0  0  0  0  0
    4.9317    1.6835    0.0000 C   0  0  2  0  0  0  0  0  0  0  0  0
    3.9280    3.9295    0.0000 O   0  0  0  0  0  0  0  0  0  0  0  0
    5.8217    0.4735    0.0000 C   0  0  0  0  0  0  0  0  0  0  0  0
    4.9317   -0.7365    0.0000 C   0  0  0  0  0  0  0  0  0  0  0  0
    3.5117   -0.2765    0.0000 C   0  0  1  0  0  0  0  0  0  0  0  0
    2.2117   -1.0265    0.0000 C   0  0  2  0  0  0  0  0  0  0  0  0
    2.2117   -2.5265    0.0000 C   0  0  0  0  0  0  0  0  0  0  0  0
    0.9117   -3.2765    0.0000 C   0  0  0  0  0  0  0  0  0  0  0  0
   -0.3883   -2.5265    0.0000 C   0  0  0  0  0  0  0  0  0  0  0  0
   -1.6883   -3.2765    0.0000 C   0  0  0  0  0  0  0  0  0  0  0  0
   -2.9883   -2.5265    0.0000 C   0  0  0  0  0  0  0  0  0  0  0  0
   -4.4083   -2.9865    0.0000 O   0  0  0  0  0  0  0  0  0  0  0  0
   -5.2983   -1.7765    0.0000 N   0  0  0  0  0  0  0  0  0  0  0  0
   -4.4083   -0.5665    0.0000 C   0  0  0  0  0  0  0  0  0  0  0  0
   -2.9883   -1.0265    0.0000 C   0  0  0  0  0  0  0  0  0  0  0  0
   -1.6883   -0.2765    0.0000 C   0  0  0  0  0  0  0  0  0  0  0  0
   -0.3883   -1.0265    0.0000 C   0  0  1  0  0  0  0  0  0  0  0  0
   -0.3883    0.4735    0.0000 C   0  0  0  0  0  0  0  0  0  0  0  0
    0.9117   -0.2765    0.0000 C   0  0  1  0  0  0  0  0  0  0  0  0
    0.9117    1.2235    0.0000 C   0  0  0  0  0  0  0  0  0  0  0  0
    2.2117    1.9735    0.0000 C   0  0  0  0  0  0  0  0  0  0  0  0
    3.5117    1.2235    0.0000 C   0  0  2  0  0  0  0  0  0  0  0  0
    4.5137    0.1073    0.0000 C   0  0  0  0  0  0  0  0  0  0  0  0
   -1.6874    1.2235    0.0000 O   0  0  0  0  0  0  0  0  0  0  0  0
  1  2  3  0  0  0  0
  3  2  1  6  0  0  0
  3  4  1  1  0  0  0
  3  5  1  0  0  0  0
  5  6  1  0  0  0  0
  7  6  1  1  0  0  0
  7  8  1  0  0  0  0
  8  9  1  6  0  0  0
  9 10  1  0  0  0  0
 10 11  1  0  0  0  0
 11 12  2  0  0  0  0
 12 13  1  0  0  0  0
 13 14  1  0  0  0  0
 14 15  1  0  0  0  0
 15 16  2  0  0  0  0
 16 17  1  0  0  0  0
 13 17  2  0  0  0  0
 17 18  1  0  0  0  0
 18 19  1  0  0  0  0
 11 19  1  0  0  0  0
 19 20  1  1  0  0  0
 19 21  1  0  0  0  0
  8 21  1  0  0  0  0
 21 22  1  1  0  0  0
 22 23  1  0  0  0  0
 23 24  1  0  0  0  0
  7 24  1  0  0  0  0
  3 24  1  0  0  0  0
 24 25  1  1  0  0  0
 26 20  1  0  0  0  0
M  END
> <InChI>
InChI=1S/C22H27NO3/c1-3-22(25)9-7-17-16-5-4-15-10-19-14(12-23-26-19)11-21(15,13-24)18(16)6-8-20(17,22)2/h1,10,12,16-18,24-25H,4-9,11,13H2,2H3/t16-,17-,18-,20-,21+,22-/m0/s1

> <InChIKey>
JNAFVXAZBRAXFM-RLZRBERESA-N

> <SMILES>
C#C[C@]1(O)CC[C@H]2[C@@H]3CCC4=CC=5ON=CC5C[C@]4(CO)[C@H]3CC[C@@]21C

> <Synonyms>


> <PUBCHEM_CID>


> <Molecular_formula>
C22H27NO3

> <Major_Isotope_Mass>
353.199093724

> <ALogP>
3.7838999999999983

> <Lipinski_Violations>
0

> <Insecticide_Likeness_Violations>
0

> <Post_Em_Herbicide_Likeness_Violations>
0

> <Metabolite_ID>
BTM00007

> <Reaction>
Hydroxylation of methyl carbon adjacent to aliphatic ring

> <Reaction_ID>
BTMR0054

> <Enzyme(s)>
CYP2B6
CYP2C8
CYP2C9
CYP2C19
CYP2D6
CYP3A4

> <Biosystem>
HUMAN

> <Precursor_ID>


> <Precursor_SMILES>
C#C[C@]1(O)CC[C@H]2[C@@H]3CCC4=CC=5ON=CC5C[C@]4(C)[C@H]3CC[C@@]21C

> <Precursor_InChI>
InChI=1S/C22H27NO2/c1-4-22(24)10-8-18-16-6-5-15-11-19-14(13-23-25-19)12-20(15,2)17(16)7-9-21(18,22)3/h1,11,13,16-18,24H,5-10,12H2,2-3H3/t16-,17+,18+,20+,21+,22+/m1/s1

> <Precursor_InChIKey>
POZRVZJJTULAOH-LHZXLZLDSA-N

> <Precursor_ALogP>


> <Precursor_Major_Isotope_Mass>
337.2041

$$$$
