BTM00001
  CDK     09122622072D

 22 25  0  0  1  0  0  0  0  0999 V2000
   -1.6800    1.1900    0.0000 C   0  0  0  0  0  0  0  0  0  0  0  0
   -1.6800   -0.3100    0.0000 C   0  0  2  0  0  0  0  0  0  0  0  0
   -2.9800    0.4400    0.0000 C   0  0  0  0  0  0  0  0  0  0  0  0
   -4.2800   -0.3100    0.0000 C   0  0  0  0  0  0  0  0  0  0  0  0
   -4.2800   -1.8100    0.0000 C   0  0  0  0  0  0  0  0  0  0  0  0
   -5.5789   -2.5602    0.0000 O   0  0  0  0  0  0  0  0  0  0  0  0
   -2.9800   -2.5600    0.0000 C   0  0  0  0  0  0  0  0  0  0  0  0
   -1.6800   -1.8100    0.0000 C   0  0  0  0  0  0  0  0  0  0  0  0
   -0.3800   -2.5600    0.0000 C   0  0  0  0  0  0  0  0  0  0  0  0
    0.9200   -1.8100    0.0000 C   0  0  1  0  0  0  0  0  0  0  0  0
    2.2189   -2.5602    0.0000 O   0  0  0  0  0  0  0  0  0  0  0  0
    0.9200   -0.3100    0.0000 C   0  0  2  0  0  0  0  0  0  0  0  0
   -0.3800    0.4400    0.0000 C   0  0  2  0  0  0  0  0  0  0  0  0
   -0.3800    1.9400    0.0000 C   0  0  0  0  0  0  0  0  0  0  0  0
    0.9200    2.6900    0.0000 C   0  0  0  0  0  0  0  0  0  0  0  0
    2.2200    1.9400    0.0000 C   0  0  2  0  0  0  0  0  0  0  0  0
    2.3787    3.4316    0.0000 C   0  0  0  0  0  0  0  0  0  0  0  0
    3.6500    2.4000    0.0000 C   0  0  0  0  0  0  0  0  0  0  0  0
    4.1153    3.8260    0.0000 O   0  0  0  0  0  0  0  0  0  0  0  0
    4.5300    1.1900    0.0000 C   0  0  0  0  0  0  0  0  0  0  0  0
    3.6500   -0.0200    0.0000 C   0  0  0  0  0  0  0  0  0  0  0  0
    2.2200    0.4400    0.0000 C   0  0  1  0  0  0  0  0  0  0  0  0
  2  1  1  1  0  0  0
  2  3  1  0  0  0  0
  3  4  1  0  0  0  0
  4  5  1  0  0  0  0
  5  6  2  0  0  0  0
  5  7  1  0  0  0  0
  7  8  1  0  0  0  0
  2  8  1  0  0  0  0
  8  9  2  0  0  0  0
  9 10  1  0  0  0  0
 10 11  1  6  0  0  0
 12 10  1  6  0  0  0
 12 13  1  0  0  0  0
  2 13  1  0  0  0  0
 13 14  1  1  0  0  0
 14 15  1  0  0  0  0
 15 16  1  0  0  0  0
 16 17  1  1  0  0  0
 16 18  1  0  0  0  0
 18 19  2  0  0  0  0
 18 20  1  0  0  0  0
 20 21  1  0  0  0  0
 22 21  1  1  0  0  0
 12 22  1  0  0  0  0
 16 22  1  0  0  0  0
M  END
> <InChI>
InChI=1S/C19H26O3/c1-18-7-5-12(20)9-11(18)10-15(21)17-13-3-4-16(22)19(13,2)8-6-14(17)18/h10,13-15,17,21H,3-9H2,1-2H3/t13-,14-,15+,17-,18-,19-/m0/s1

> <InChIKey>
RLDYRQGMEVXOBC-TYHLISGHSA-N

> <SMILES>
C[C@]12CCC(=O)CC1=C[C@@H](O)[C@@H]3[C@@H]2CC[C@]4(C)C(=O)CC[C@@H]34

> <Synonyms>


> <PUBCHEM_CID>


> <Molecular_formula>
C19H26O3

> <Major_Isotope_Mass>
302.18819469199997

> <ALogP>
1.837999999999999

> <Lipinski_Violations>
0

> <Insecticide_Likeness_Violations>
0

> <Post_Em_Herbicide_Likeness_Violations>
0

> <Metabolite_ID>
BTM00001

> <Reaction>
Dehydrogenation of secondary alcohol

> <Reaction_ID>
BTMR0030

> <Enzyme(s)>
EC 1.1.1.1

> <Biosystem>
HUMAN

> <Precursor_ID>


> <Precursor_SMILES>
C[C@]12CC[C@H](O)CC1=C[C@@H](O)[C@@H]3[C@@H]2CC[C@]4(C)C(=O)CC[C@@H]34

> <Precursor_InChI>
InChI=1S/C19H28O3/c1-18-7-5-12(20)9-11(18)10-15(21)17-13-3-4-16(22)19(13,2)8-6-14(17)18/h10,12-15,17,20-21H,3-9H2,1-2H3/t12-,13-,14-,15+,17-,18-,19-/m0/s1

> <Precursor_InChIKey>
OLPSAOWBSPXZEA-JIEICEMKSA-N

> <Precursor_ALogP>


> <Precursor_Major_Isotope_Mass>
304.2038

$$$$
BTM00002
  CDK     09122622072D

 22 25  0  0  1  0  0  0  0  0999 V2000
   -1.6800    1.1900    0.0000 C   0  0  0  0  0  0  0  0  0  0  0  0
   -1.6800   -0.3100    0.0000 C   0  0  2  0  0  0  0  0  0  0  0  0
   -2.9800    0.4400    0.0000 C   0  0  0  0  0  0  0  0  0  0  0  0
   -4.2800   -0.3100    0.0000 C   0  0  0  0  0  0  0  0  0  0  0  0
   -4.2800   -1.8100    0.0000 C   0  0  2  0  0  0  0  0  0  0  0  0
   -5.5789   -2.5602    0.0000 O   0  0  0  0  0  0  0  0  0  0  0  0
   -2.9800   -2.5600    0.0000 C   0  0  0  0  0  0  0  0  0  0  0  0
   -1.6800   -1.8100    0.0000 C   0  0  0  0  0  0  0  0  0  0  0  0
   -0.3800   -2.5600    0.0000 C   0  0  0  0  0  0  0  0  0  0  0  0
    0.9200   -1.8100    0.0000 C   0  0  0  0  0  0  0  0  0  0  0  0
    2.2189   -2.5602    0.0000 O   0  0  0  0  0  0  0  0  0  0  0  0
    0.9200   -0.3100    0.0000 C   0  0  2  0  0  0  0  0  0  0  0  0
   -0.3800    0.4400    0.0000 C   0  0  2  0  0  0  0  0  0  0  0  0
   -0.3800    1.9400    0.0000 C   0  0  0  0  0  0  0  0  0  0  0  0
    0.9200    2.6900    0.0000 C   0  0  0  0  0  0  0  0  0  0  0  0
    2.2200    1.9400    0.0000 C   0  0  2  0  0  0  0  0  0  0  0  0
    2.3787    3.4316    0.0000 C   0  0  0  0  0  0  0  0  0  0  0  0
    3.6500    2.4000    0.0000 C   0  0  0  0  0  0  0  0  0  0  0  0
    4.1153    3.8260    0.0000 O   0  0  0  0  0  0  0  0  0  0  0  0
    4.5300    1.1900    0.0000 C   0  0  0  0  0  0  0  0  0  0  0  0
    3.6500   -0.0200    0.0000 C   0  0  0  0  0  0  0  0  0  0  0  0
    2.2200    0.4400    0.0000 C   0  0  1  0  0  0  0  0  0  0  0  0
  2  1  1  1  0  0  0
  2  3  1  0  0  0  0
  3  4  1  0  0  0  0
  4  5  1  0  0  0  0
  5  6  1  1  0  0  0
  5  7  1  0  0  0  0
  7  8  1  0  0  0  0
  2  8  1  0  0  0  0
  8  9  2  0  0  0  0
  9 10  1  0  0  0  0
 10 11  2  0  0  0  0
 12 10  1  6  0  0  0
 12 13  1  0  0  0  0
  2 13  1  0  0  0  0
 13 14  1  1  0  0  0
 14 15  1  0  0  0  0
 15 16  1  0  0  0  0
 16 17  1  1  0  0  0
 16 18  1  0  0  0  0
 18 19  2  0  0  0  0
 18 20  1  0  0  0  0
 20 21  1  0  0  0  0
 22 21  1  1  0  0  0
 12 22  1  0  0  0  0
 16 22  1  0  0  0  0
M  END
> <InChI>
InChI=1S/C19H26O3/c1-18-7-5-12(20)9-11(18)10-15(21)17-13-3-4-16(22)19(13,2)8-6-14(17)18/h10,12-14,17,20H,3-9H2,1-2H3/t12-,13-,14-,17-,18-,19-/m0/s1

> <InChIKey>
KPRGOTLNGIBVFL-GINZOMEDSA-N

> <SMILES>
C[C@]12CC[C@H](O)CC1=CC(=O)[C@@H]3[C@@H]2CC[C@]4(C)C(=O)CC[C@@H]34

> <Synonyms>


> <PUBCHEM_CID>


> <Molecular_formula>
C19H26O3

> <Major_Isotope_Mass>
302.18819469199997

> <ALogP>
2.267599999999999

> <Lipinski_Violations>
0

> <Insecticide_Likeness_Violations>
0

> <Post_Em_Herbicide_Likeness_Violations>
0

> <Metabolite_ID>
BTM00002

> <Reaction>
Dehydrogenation of secondary alcohol

> <Reaction_ID>
BTMR0031

> <Enzyme(s)>
EC 1.1.1.1

> <Biosystem>
HUMAN

> <Precursor_ID>


> <Precursor_SMILES>
C[C@]12CC[C@H](O)CC1=C[C@@H](O)[C@@H]3[C@@H]2CC[C@]4(C)C(=O)CC[C@@H]34

> <Precursor_InChI>
InChI=1S/C19H28O3/c1-18-7-5-12(20)9-11(18)10-15(21)17-13-3-4-16(22)19(13,2)8-6-14(17)18/h10,12-15,17,20-21H,3-9H2,1-2H3/t12-,13-,14-,15+,17-,18-,19-/m0/s1

> <Precursor_InChIKey>
OLPSAOWBSPXZEA-JIEICEMKSA-N

> <Precursor_ALogP>


> <Precursor_Major_Isotope_Mass>
304.2038

$$$$
BTM00003
  CDK     09122622072D

 22 25  0  0  1  0  0  0  0  0999 V2000
   -1.6800    1.1900    0.0000 C   0  0  0  0  0  0  0  0  0  0  0  0
   -1.6800   -0.3100    0.0000 C   0  0  2  0  0  0  0  0  0  0  0  0
   -2.9800    0.4400    0.0000 C   0  0  0  0  0  0  0  0  0  0  0  0
   -4.2800   -0.3100    0.0000 C   0  0  0  0  0  0  0  0  0  0  0  0
   -4.2800   -1.8100    0.0000 C   0  0  0  0  0  5  0  0  0  0  0  0
   -5.5789   -2.5602    0.0000 O   0  0  0  0  0  0  0  0  0  0  0  0
   -2.9800   -2.5600    0.0000 C   0  0  0  0  0  0  0  0  0  0  0  0
   -1.6800   -1.8100    0.0000 C   0  0  0  0  0  0  0  0  0  0  0  0
   -0.3800   -2.5600    0.0000 C   0  0  0  0  0  0  0  0  0  0  0  0
    0.9200   -1.8100    0.0000 C   0  0  1  0  0  0  0  0  0  0  0  0
    2.2189   -2.5602    0.0000 O   0  0  0  0  0  0  0  0  0  0  0  0
    0.9200   -0.3100    0.0000 C   0  0  2  0  0  0  0  0  0  0  0  0
   -0.3800    0.4400    0.0000 C   0  0  2  0  0  0  0  0  0  0  0  0
   -0.3800    1.9400    0.0000 C   0  0  0  0  0  0  0  0  0  0  0  0
    0.9200    2.6900    0.0000 C   0  0  0  0  0  0  0  0  0  0  0  0
    2.2200    1.9400    0.0000 C   0  0  2  0  0  0  0  0  0  0  0  0
    2.3787    3.4316    0.0000 C   0  0  0  0  0  0  0  0  0  0  0  0
    3.6500    2.4000    0.0000 C   0  0  0  0  0  0  0  0  0  0  0  0
    4.1153    3.8260    0.0000 O   0  0  0  0  0  0  0  0  0  0  0  0
    4.5300    1.1900    0.0000 C   0  0  0  0  0  0  0  0  0  0  0  0
    3.6500   -0.0200    0.0000 C   0  0  0  0  0  0  0  0  0  0  0  0
    2.2200    0.4400    0.0000 C   0  0  1  0  0  0  0  0  0  0  0  0
  2  1  1  1  0  0  0
  2  3  1  0  0  0  0
  3  4  1  0  0  0  0
  4  5  1  0  0  0  0
  5  6  2  0  0  0  0
  5  7  1  0  0  0  0
  7  8  1  0  0  0  0
  2  8  1  0  0  0  0
  8  9  2  0  0  0  0
  9 10  1  0  0  0  0
 10 11  1  6  0  0  0
 12 10  1  6  0  0  0
 12 13  1  0  0  0  0
  2 13  1  0  0  0  0
 13 14  1  1  0  0  0
 14 15  1  0  0  0  0
 15 16  1  0  0  0  0
 16 17  1  1  0  0  0
 16 18  1  0  0  0  0
 18 19  2  0  0  0  0
 18 20  1  0  0  0  0
 20 21  1  0  0  0  0
 22 21  1  1  0  0  0
 12 22  1  0  0  0  0
 16 22  1  0  0  0  0
M  END
> <InChI>
InChI=1S/C19H27O3/c1-18-7-5-12(20)9-11(18)10-15(21)17-13-3-4-16(22)19(13,2)8-6-14(17)18/h10,12-15,17,21H,3-9H2,1-2H3/t13-,14-,15+,17-,18-,19-/m0/s1

> <InChIKey>
AAAHYRRAVVCFTB-TYHLISGHSA-N

> <SMILES>
C[C@]12CC[CH](=O)CC1=C[C@@H](O)[C@@H]3[C@@H]2CC[C@]4(C)C(=O)CC[C@@H]34

> <Synonyms>


> <PUBCHEM_CID>


> <Molecular_formula>
C19H27O3

> <Major_Isotope_Mass>
303.196019724

> <ALogP>
2.078499999999998

> <Lipinski_Violations>
0

> <Insecticide_Likeness_Violations>
0

> <Post_Em_Herbicide_Likeness_Violations>
0

> <Metabolite_ID>
BTM00003

> <Reaction>
Dehydrogenation of 3-beta-hydroxy-delta-5-steroid

> <Reaction_ID>
BTMR0363

> <Enzyme(s)>
EC 1.1.1.145

> <Biosystem>
HUMAN

> <Precursor_ID>


> <Precursor_SMILES>
C[C@]12CC[C@H](O)CC1=C[C@@H](O)[C@@H]3[C@@H]2CC[C@]4(C)C(=O)CC[C@@H]34

> <Precursor_InChI>
InChI=1S/C19H28O3/c1-18-7-5-12(20)9-11(18)10-15(21)17-13-3-4-16(22)19(13,2)8-6-14(17)18/h10,12-15,17,20-21H,3-9H2,1-2H3/t12-,13-,14-,15+,17-,18-,19-/m0/s1

> <Precursor_InChIKey>
OLPSAOWBSPXZEA-JIEICEMKSA-N

> <Precursor_ALogP>


> <Precursor_Major_Isotope_Mass>
304.2038

$$$$
BTM00004
  CDK     09122622072D

 23 26  0  0  1  0  0  0  0  0999 V2000
   -1.6800    1.1900    0.0000 C   0  0  0  0  0  0  0  0  0  0  0  0
   -1.6800   -0.3100    0.0000 C   0  0  2  0  0  0  0  0  0  0  0  0
   -2.9800    0.4400    0.0000 C   0  0  0  0  0  0  0  0  0  0  0  0
   -4.2800   -0.3100    0.0000 C   0  0  0  0  0  0  0  0  0  0  0  0
   -4.2800   -1.8100    0.0000 C   0  0  2  0  0  0  0  0  0  0  0  0
   -5.5789   -2.5602    0.0000 O   0  0  0  0  0  0  0  0  0  0  0  0
   -2.9800   -2.5600    0.0000 C   0  0  0  0  0  0  0  0  0  0  0  0
   -1.6800   -1.8100    0.0000 C   0  0  0  0  0  0  0  0  0  0  0  0
   -0.3800   -2.5600    0.0000 C   0  0  0  0  0  0  0  0  0  0  0  0
    0.9200   -1.8100    0.0000 C   0  0  1  0  0  0  0  0  0  0  0  0
    2.2189   -2.5602    0.0000 O   0  0  0  0  0  0  0  0  0  0  0  0
    0.9200   -0.3100    0.0000 C   0  0  2  0  0  0  0  0  0  0  0  0
   -0.3800    0.4400    0.0000 C   0  0  2  0  0  0  0  0  0  0  0  0
   -0.3800    1.9400    0.0000 C   0  0  0  0  0  0  0  0  0  0  0  0
    0.9200    2.6900    0.0000 C   0  0  0  0  0  0  0  0  0  0  0  0
    2.2200    1.9400    0.0000 C   0  0  2  0  0  0  0  0  0  0  0  0
    2.3787    3.4316    0.0000 C   0  0  0  0  0  0  0  0  0  0  0  0
    3.6500    2.4000    0.0000 C   0  0  0  0  0  0  0  0  0  0  0  0
    4.1153    3.8260    0.0000 O   0  0  0  0  0  0  0  0  0  0  0  0
    4.5300    1.1900    0.0000 C   0  0  0  0  0  0  0  0  0  0  0  0
    3.6500   -0.0200    0.0000 C   0  0  0  0  0  0  0  0  0  0  0  0
    2.2200    0.4400    0.0000 C   0  0  1  0  0  0  0  0  0  0  0  0
   -1.6789    2.6902    0.0000 O   0  0  0  0  0  0  0  0  0  0  0  0
  2  1  1  1  0  0  0
  2  3  1  0  0  0  0
  3  4  1  0  0  0  0
  4  5  1  0  0  0  0
  5  6  1  1  0  0  0
  5  7  1  0  0  0  0
  7  8  1  0  0  0  0
  2  8  1  0  0  0  0
  8  9  2  0  0  0  0
  9 10  1  0  0  0  0
 10 11  1  6  0  0  0
 12 10  1  6  0  0  0
 12 13  1  0  0  0  0
  2 13  1  0  0  0  0
 13 14  1  1  0  0  0
 14 15  1  0  0  0  0
 15 16  1  0  0  0  0
 16 17  1  1  0  0  0
 16 18  1  0  0  0  0
 18 19  2  0  0  0  0
 18 20  1  0  0  0  0
 20 21  1  0  0  0  0
 22 21  1  1  0  0  0
 12 22  1  0  0  0  0
 16 22  1  0  0  0  0
 23 14  1  0  0  0  0
M  END
> <InChI>
InChI=1S/C19H28O4/c1-18-6-5-11(20)7-10(18)8-13(21)16-12-3-4-15(23)19(12,2)9-14(22)17(16)18/h8,11-14,16-17,20-22H,3-7,9H2,1-2H3/t11-,12-,13+,14?,16+,17-,18-,19-/m0/s1

> <InChIKey>
CQUBIKORFIDREA-JOROJGAVSA-N

> <SMILES>
C[C@]12CC[C@H](O)CC1=C[C@@H](O)[C@@H]3[C@@H]2C(C[C@]4(C)C(=O)CC[C@@H]34)O

> <Synonyms>


> <PUBCHEM_CID>


> <Molecular_formula>
C19H28O4

> <Major_Isotope_Mass>
320.198759376

> <ALogP>
0.9944999999999958

> <Lipinski_Violations>
0

> <Insecticide_Likeness_Violations>
1

> <Post_Em_Herbicide_Likeness_Violations>
1

> <Metabolite_ID>
BTM00004

> <Reaction>
11-beta-Hydroxylation of sterol

> <Reaction_ID>
BTMR0406

> <Enzyme(s)>
EC 1.14.15.4

> <Biosystem>
HUMAN

> <Precursor_ID>


> <Precursor_SMILES>
C[C@]12CC[C@H](O)CC1=C[C@@H](O)[C@@H]3[C@@H]2CC[C@]4(C)C(=O)CC[C@@H]34

> <Precursor_InChI>
InChI=1S/C19H28O3/c1-18-7-5-12(20)9-11(18)10-15(21)17-13-3-4-16(22)19(13,2)8-6-14(17)18/h10,12-15,17,20-21H,3-9H2,1-2H3/t12-,13-,14-,15+,17-,18-,19-/m0/s1

> <Precursor_InChIKey>
OLPSAOWBSPXZEA-JIEICEMKSA-N

> <Precursor_ALogP>


> <Precursor_Major_Isotope_Mass>
304.2038

$$$$
BTM00005
  CDK     09122622072D

 34 38  0  0  1  0  0  0  0  0999 V2000
   -1.6800    1.1900    0.0000 C   0  0  0  0  0  0  0  0  0  0  0  0
   -1.6800   -0.3100    0.0000 C   0  0  2  0  0  0  0  0  0  0  0  0
   -2.9800    0.4400    0.0000 C   0  0  0  0  0  0  0  0  0  0  0  0
   -4.2800   -0.3100    0.0000 C   0  0  0  0  0  0  0  0  0  0  0  0
   -4.2800   -1.8100    0.0000 C   0  0  2  0  0  0  0  0  0  0  0  0
   -5.5789   -2.5602    0.0000 O   0  0  0  0  0  0  0  0  0  0  0  0
   -2.9800   -2.5600    0.0000 C   0  0  0  0  0  0  0  0  0  0  0  0
   -1.6800   -1.8100    0.0000 C   0  0  0  0  0  0  0  0  0  0  0  0
   -0.3800   -2.5600    0.0000 C   0  0  0  0  0  0  0  0  0  0  0  0
    0.9200   -1.8100    0.0000 C   0  0  1  0  0  0  0  0  0  0  0  0
    2.2189   -2.5602    0.0000 O   0  0  0  0  0  0  0  0  0  0  0  0
    0.9200   -0.3100    0.0000 C   0  0  2  0  0  0  0  0  0  0  0  0
   -0.3800    0.4400    0.0000 C   0  0  2  0  0  0  0  0  0  0  0  0
   -0.3800    1.9400    0.0000 C   0  0  0  0  0  0  0  0  0  0  0  0
    0.9200    2.6900    0.0000 C   0  0  0  0  0  0  0  0  0  0  0  0
    2.2200    1.9400    0.0000 C   0  0  2  0  0  0  0  0  0  0  0  0
    2.3787    3.4316    0.0000 C   0  0  0  0  0  0  0  0  0  0  0  0
    3.6500    2.4000    0.0000 C   0  0  0  0  0  0  0  0  0  0  0  0
    4.1153    3.8260    0.0000 O   0  0  0  0  0  0  0  0  0  0  0  0
    4.5300    1.1900    0.0000 C   0  0  0  0  0  0  0  0  0  0  0  0
    3.6500   -0.0200    0.0000 C   0  0  0  0  0  0  0  0  0  0  0  0
    2.2200    0.4400    0.0000 C   0  0  1  0  0  0  0  0  0  0  0  0
   -8.1767   -4.0512    0.0000 O   0  0  0  0  0  0  0  0  0  0  0  0
   -8.1709   -2.5512    0.0000 C   0  0  0  0  0  0  0  0  0  0  0  0
   -9.4866   -1.7837    0.0000 C   0  0  0  0  0  0  0  0  0  0  0  0
  -10.7905   -2.5251    0.0000 O   0  0  0  0  0  0  0  0  0  0  0  0
   -9.4734   -0.2779    0.0000 C   0  0  0  0  0  0  0  0  0  0  0  0
  -10.7679    0.4799    0.0000 O   0  0  0  0  0  0  0  0  0  0  0  0
   -8.1806    0.4629    0.0000 C   0  0  0  0  0  0  0  0  0  0  0  0
   -6.8836   -0.2922    0.0000 O   0  0  0  0  0  0  0  0  0  0  0  0
   -6.8781   -1.8104    0.0000 C   0  0  0  0  0  0  0  0  0  0  0  0
   -8.1754    1.9629    0.0000 C   0  0  0  0  0  0  0  0  0  0  0  0
   -9.4719    2.7173    0.0000 O   0  0  0  0  0  0  0  0  0  0  0  0
   -6.8738    2.7084    0.0000 O   0  0  0  0  0  0  0  0  0  0  0  0
  2  1  1  1  0  0  0
  2  3  1  0  0  0  0
  3  4  1  0  0  0  0
  4  5  1  0  0  0  0
  5  6  1  1  0  0  0
  5  7  1  0  0  0  0
  7  8  1  0  0  0  0
  2  8  1  0  0  0  0
  8  9  2  0  0  0  0
  9 10  1  0  0  0  0
 10 11  1  6  0  0  0
 12 10  1  6  0  0  0
 12 13  1  0  0  0  0
  2 13  1  0  0  0  0
 13 14  1  1  0  0  0
 14 15  1  0  0  0  0
 15 16  1  0  0  0  0
 16 17  1  1  0  0  0
 16 18  1  0  0  0  0
 18 19  2  0  0  0  0
 18 20  1  0  0  0  0
 20 21  1  0  0  0  0
 22 21  1  1  0  0  0
 12 22  1  0  0  0  0
 16 22  1  0  0  0  0
 23 24  1  0  0  0  0
 24 25  1  0  0  0  0
 25 26  1  0  0  0  0
 25 27  1  0  0  0  0
 27 28  1  0  0  0  0
 27 29  1  0  0  0  0
 29 30  1  0  0  0  0
 30 31  1  0  0  0  0
 24 31  1  0  0  0  0
 31  6  1  0  0  0  0
 29 32  1  0  0  0  0
 32 33  1  0  0  0  0
 32 34  2  0  0  0  0
M  END
> <InChI>
InChI=1S/C25H36O9/c1-24-7-5-12(33-23-20(30)18(28)19(29)21(34-23)22(31)32)9-11(24)10-15(26)17-13-3-4-16(27)25(13,2)8-6-14(17)24/h10,12-15,17-21,23,26,28-30H,3-9H2,1-2H3,(H,31,32)/t12-,13-,14-,15+,17-,18?,19?,20?,21?,23?,24-,25-/m0/s1

> <InChIKey>
QYPGBOQKJYBLES-VGCUIWGASA-N

> <SMILES>
C[C@]12CC[C@H](OC3OC(C(C(C3O)O)O)C(O)=O)CC1=C[C@@H](O)[C@@H]4[C@@H]2CC[C@]5(C)C(=O)CC[C@@H]45

> <Synonyms>


> <PUBCHEM_CID>


> <Molecular_formula>
C25H36O9

> <Major_Isotope_Mass>
480.235932732

> <ALogP>
0.6258999999999959

> <Lipinski_Violations>
0

> <Insecticide_Likeness_Violations>
1

> <Post_Em_Herbicide_Likeness_Violations>
1

> <Metabolite_ID>
BTM00005

> <Reaction>
3-OH-Glucuronidation of sterol

> <Reaction_ID>
BTMR0157

> <Enzyme(s)>
EC 2.4.1.17

> <Biosystem>
HUMAN

> <Precursor_ID>


> <Precursor_SMILES>
C[C@]12CC[C@H](O)CC1=C[C@@H](O)[C@@H]3[C@@H]2CC[C@]4(C)C(=O)CC[C@@H]34

> <Precursor_InChI>
InChI=1S/C19H28O3/c1-18-7-5-12(20)9-11(18)10-15(21)17-13-3-4-16(22)19(13,2)8-6-14(17)18/h10,12-15,17,20-21H,3-9H2,1-2H3/t12-,13-,14-,15+,17-,18-,19-/m0/s1

> <Precursor_InChIKey>
OLPSAOWBSPXZEA-JIEICEMKSA-N

> <Precursor_ALogP>


> <Precursor_Major_Isotope_Mass>
304.2038

$$$$
BTM00006
  CDK     09122622072D

 34 38  0  0  1  0  0  0  0  0999 V2000
   -1.6800    1.1900    0.0000 C   0  0  0  0  0  0  0  0  0  0  0  0
   -1.6800   -0.3100    0.0000 C   0  0  2  0  0  0  0  0  0  0  0  0
   -2.9800    0.4400    0.0000 C   0  0  0  0  0  0  0  0  0  0  0  0
   -4.2800   -0.3100    0.0000 C   0  0  0  0  0  0  0  0  0  0  0  0
   -4.2800   -1.8100    0.0000 C   0  0  2  0  0  0  0  0  0  0  0  0
   -5.5789   -2.5602    0.0000 O   0  0  0  0  0  0  0  0  0  0  0  0
   -2.9800   -2.5600    0.0000 C   0  0  0  0  0  0  0  0  0  0  0  0
   -1.6800   -1.8100    0.0000 C   0  0  0  0  0  0  0  0  0  0  0  0
   -0.3800   -2.5600    0.0000 C   0  0  0  0  0  0  0  0  0  0  0  0
    0.9200   -1.8100    0.0000 C   0  0  1  0  0  0  0  0  0  0  0  0
    2.2189   -2.5602    0.0000 O   0  0  0  0  0  0  0  0  0  0  0  0
    0.9200   -0.3100    0.0000 C   0  0  2  0  0  0  0  0  0  0  0  0
   -0.3800    0.4400    0.0000 C   0  0  2  0  0  0  0  0  0  0  0  0
   -0.3800    1.9400    0.0000 C   0  0  0  0  0  0  0  0  0  0  0  0
    0.9200    2.6900    0.0000 C   0  0  0  0  0  0  0  0  0  0  0  0
    2.2200    1.9400    0.0000 C   0  0  2  0  0  0  0  0  0  0  0  0
    2.3787    3.4316    0.0000 C   0  0  0  0  0  0  0  0  0  0  0  0
    3.6500    2.4000    0.0000 C   0  0  0  0  0  0  0  0  0  0  0  0
    4.1153    3.8260    0.0000 O   0  0  0  0  0  0  0  0  0  0  0  0
    4.5300    1.1900    0.0000 C   0  0  0  0  0  0  0  0  0  0  0  0
    3.6500   -0.0200    0.0000 C   0  0  0  0  0  0  0  0  0  0  0  0
    2.2200    0.4400    0.0000 C   0  0  1  0  0  0  0  0  0  0  0  0
    4.8085   -4.0653    0.0000 O   0  0  0  0  0  0  0  0  0  0  0  0
    3.5064   -4.8099    0.0000 C   0  0  0  0  0  0  0  0  0  0  0  0
    3.4990   -6.3330    0.0000 C   0  0  0  0  0  0  0  0  0  0  0  0
    4.7928   -7.0920    0.0000 O   0  0  0  0  0  0  0  0  0  0  0  0
    2.1882   -7.0741    0.0000 C   0  0  0  0  0  0  0  0  0  0  0  0
    2.1787   -8.5741    0.0000 O   0  0  0  0  0  0  0  0  0  0  0  0
    0.9005   -6.3244    0.0000 C   0  0  0  0  0  0  0  0  0  0  0  0
    0.9064   -4.8236    0.0000 O   0  0  0  0  0  0  0  0  0  0  0  0
    2.2187   -4.0602    0.0000 C   0  0  0  0  0  0  0  0  0  0  0  0
   -0.4014   -7.0695    0.0000 C   0  0  0  0  0  0  0  0  0  0  0  0
   -0.4070   -8.5695    0.0000 O   0  0  0  0  0  0  0  0  0  0  0  0
   -1.6976   -6.3146    0.0000 O   0  0  0  0  0  0  0  0  0  0  0  0
  2  1  1  1  0  0  0
  2  3  1  0  0  0  0
  3  4  1  0  0  0  0
  4  5  1  0  0  0  0
  5  6  1  1  0  0  0
  5  7  1  0  0  0  0
  7  8  1  0  0  0  0
  2  8  1  0  0  0  0
  8  9  2  0  0  0  0
  9 10  1  0  0  0  0
 10 11  1  6  0  0  0
 12 10  1  6  0  0  0
 12 13  1  0  0  0  0
  2 13  1  0  0  0  0
 13 14  1  1  0  0  0
 14 15  1  0  0  0  0
 15 16  1  0  0  0  0
 16 17  1  1  0  0  0
 16 18  1  0  0  0  0
 18 19  2  0  0  0  0
 18 20  1  0  0  0  0
 20 21  1  0  0  0  0
 22 21  1  1  0  0  0
 12 22  1  0  0  0  0
 16 22  1  0  0  0  0
 23 24  1  0  0  0  0
 24 25  1  0  0  0  0
 25 26  1  0  0  0  0
 25 27  1  0  0  0  0
 27 28  1  0  0  0  0
 27 29  1  0  0  0  0
 29 30  1  0  0  0  0
 30 31  1  0  0  0  0
 24 31  1  0  0  0  0
 31 11  1  0  0  0  0
 29 32  1  0  0  0  0
 32 33  1  0  0  0  0
 32 34  2  0  0  0  0
M  END
> <InChI>
InChI=1S/C25H36O9/c1-24-7-5-12(26)9-11(24)10-15(17-13-3-4-16(27)25(13,2)8-6-14(17)24)33-23-20(30)18(28)19(29)21(34-23)22(31)32/h10,12-15,17-21,23,26,28-30H,3-9H2,1-2H3,(H,31,32)/t12-,13-,14-,15+,17-,18?,19?,20?,21?,23?,24-,25-/m0/s1

> <InChIKey>
NCYGYHRWAQIOQM-VGCUIWGASA-N

> <SMILES>
C[C@]12CC[C@H](O)CC1=C[C@@H](OC3OC(C(C(C3O)O)O)C(O)=O)[C@@H]4[C@@H]2CC[C@]5(C)C(=O)CC[C@@H]45

> <Synonyms>


> <PUBCHEM_CID>


> <Molecular_formula>
C25H36O9

> <Major_Isotope_Mass>
480.235932732

> <ALogP>
0.6258999999999959

> <Lipinski_Violations>
0

> <Insecticide_Likeness_Violations>
1

> <Post_Em_Herbicide_Likeness_Violations>
1

> <Metabolite_ID>
BTM00006

> <Reaction>
7-OH-Glucuronidation of sterol

> <Reaction_ID>
BTMR0161

> <Enzyme(s)>
EC 2.4.1.17

> <Biosystem>
HUMAN

> <Precursor_ID>


> <Precursor_SMILES>
C[C@]12CC[C@H](O)CC1=C[C@@H](O)[C@@H]3[C@@H]2CC[C@]4(C)C(=O)CC[C@@H]34

> <Precursor_InChI>
InChI=1S/C19H28O3/c1-18-7-5-12(20)9-11(18)10-15(21)17-13-3-4-16(22)19(13,2)8-6-14(17)18/h10,12-15,17,20-21H,3-9H2,1-2H3/t12-,13-,14-,15+,17-,18-,19-/m0/s1

> <Precursor_InChIKey>
OLPSAOWBSPXZEA-JIEICEMKSA-N

> <Precursor_ALogP>


> <Precursor_Major_Isotope_Mass>
304.2038

$$$$
BTM00007
  CDK     09122622072D

 26 29  0  0  1  0  0  0  0  0999 V2000
   -1.6800    1.1900    0.0000 C   0  0  0  0  0  0  0  0  0  0  0  0
   -1.6800   -0.3100    0.0000 C   0  0  2  0  0  0  0  0  0  0  0  0
   -2.9800    0.4400    0.0000 C   0  0  0  0  0  0  0  0  0  0  0  0
   -4.2800   -0.3100    0.0000 C   0  0  0  0  0  0  0  0  0  0  0  0
   -4.2800   -1.8100    0.0000 C   0  0  2  0  0  0  0  0  0  0  0  0
   -5.5789   -2.5602    0.0000 O   0  0  0  0  0  0  0  0  0  0  0  0
   -2.9800   -2.5600    0.0000 C   0  0  0  0  0  0  0  0  0  0  0  0
   -1.6800   -1.8100    0.0000 C   0  0  0  0  0  0  0  0  0  0  0  0
   -0.3800   -2.5600    0.0000 C   0  0  0  0  0  0  0  0  0  0  0  0
    0.9200   -1.8100    0.0000 C   0  0  1  0  0  0  0  0  0  0  0  0
    2.2189   -2.5602    0.0000 O   0  0  0  0  0  0  0  0  0  0  0  0
    0.9200   -0.3100    0.0000 C   0  0  2  0  0  0  0  0  0  0  0  0
   -0.3800    0.4400    0.0000 C   0  0  2  0  0  0  0  0  0  0  0  0
   -0.3800    1.9400    0.0000 C   0  0  0  0  0  0  0  0  0  0  0  0
    0.9200    2.6900    0.0000 C   0  0  0  0  0  0  0  0  0  0  0  0
    2.2200    1.9400    0.0000 C   0  0  2  0  0  0  0  0  0  0  0  0
    2.3787    3.4316    0.0000 C   0  0  0  0  0  0  0  0  0  0  0  0
    3.6500    2.4000    0.0000 C   0  0  0  0  0  0  0  0  0  0  0  0
    4.1153    3.8260    0.0000 O   0  0  0  0  0  0  0  0  0  0  0  0
    4.5300    1.1900    0.0000 C   0  0  0  0  0  0  0  0  0  0  0  0
    3.6500   -0.0200    0.0000 C   0  0  0  0  0  0  0  0  0  0  0  0
    2.2200    0.4400    0.0000 C   0  0  1  0  0  0  0  0  0  0  0  0
   -6.1283   -0.5113    0.0000 O   0  0  0  0  0  0  0  0  0  0  0  0
   -6.8781   -1.8104    0.0000 S   0  0  0  0  0  0  0  0  0  0  0  0
   -8.1772   -1.0606    0.0000 O   0  0  0  0  0  0  0  0  0  0  0  0
   -7.6279   -3.1096    0.0000 O   0  0  0  0  0  0  0  0  0  0  0  0
  2  1  1  1  0  0  0
  2  3  1  0  0  0  0
  3  4  1  0  0  0  0
  4  5  1  0  0  0  0
  5  6  1  1  0  0  0
  5  7  1  0  0  0  0
  7  8  1  0  0  0  0
  2  8  1  0  0  0  0
  8  9  2  0  0  0  0
  9 10  1  0  0  0  0
 10 11  1  6  0  0  0
 12 10  1  6  0  0  0
 12 13  1  0  0  0  0
  2 13  1  0  0  0  0
 13 14  1  1  0  0  0
 14 15  1  0  0  0  0
 15 16  1  0  0  0  0
 16 17  1  1  0  0  0
 16 18  1  0  0  0  0
 18 19  2  0  0  0  0
 18 20  1  0  0  0  0
 20 21  1  0  0  0  0
 22 21  1  1  0  0  0
 12 22  1  0  0  0  0
 16 22  1  0  0  0  0
 23 24  1  0  0  0  0
 24 25  2  0  0  0  0
 24 26  2  0  0  0  0
 24  6  1  0  0  0  0
M  END
> <InChI>
InChI=1S/C19H28O6S/c1-18-7-5-12(25-26(22,23)24)9-11(18)10-15(20)17-13-3-4-16(21)19(13,2)8-6-14(17)18/h10,12-15,17,20H,3-9H2,1-2H3,(H,22,23,24)/t12-,13-,14-,15+,17-,18-,19-/m0/s1

> <InChIKey>
YMVDNUQMQPOREU-JIEICEMKSA-N

> <SMILES>
C[C@]12CC[C@H](OS(O)(=O)=O)CC1=C[C@@H](O)[C@@H]3[C@@H]2CC[C@]4(C)C(=O)CC[C@@H]34

> <Synonyms>


> <PUBCHEM_CID>


> <Molecular_formula>
C19H28O6S

> <Major_Isotope_Mass>
384.160659616

> <ALogP>
1.5845999999999976

> <Lipinski_Violations>
0

> <Insecticide_Likeness_Violations>
0

> <Post_Em_Herbicide_Likeness_Violations>
0

> <Metabolite_ID>
BTM00007

> <Reaction>
3-OH-Sulfation of sterol

> <Reaction_ID>
BTMR0503

> <Enzyme(s)>
EC 2.8.2.2

> <Biosystem>
HUMAN

> <Precursor_ID>


> <Precursor_SMILES>
C[C@]12CC[C@H](O)CC1=C[C@@H](O)[C@@H]3[C@@H]2CC[C@]4(C)C(=O)CC[C@@H]34

> <Precursor_InChI>
InChI=1S/C19H28O3/c1-18-7-5-12(20)9-11(18)10-15(21)17-13-3-4-16(22)19(13,2)8-6-14(17)18/h10,12-15,17,20-21H,3-9H2,1-2H3/t12-,13-,14-,15+,17-,18-,19-/m0/s1

> <Precursor_InChIKey>
OLPSAOWBSPXZEA-JIEICEMKSA-N

> <Precursor_ALogP>


> <Precursor_Major_Isotope_Mass>
304.2038

$$$$
BTM00008
  CDK     09122622072D

 26 29  0  0  1  0  0  0  0  0999 V2000
   -1.6800    1.1900    0.0000 C   0  0  0  0  0  0  0  0  0  0  0  0
   -1.6800   -0.3100    0.0000 C   0  0  2  0  0  0  0  0  0  0  0  0
   -2.9800    0.4400    0.0000 C   0  0  0  0  0  0  0  0  0  0  0  0
   -4.2800   -0.3100    0.0000 C   0  0  0  0  0  0  0  0  0  0  0  0
   -4.2800   -1.8100    0.0000 C   0  0  2  0  0  0  0  0  0  0  0  0
   -5.5789   -2.5602    0.0000 O   0  0  0  0  0  0  0  0  0  0  0  0
   -2.9800   -2.5600    0.0000 C   0  0  0  0  0  0  0  0  0  0  0  0
   -1.6800   -1.8100    0.0000 C   0  0  0  0  0  0  0  0  0  0  0  0
   -0.3800   -2.5600    0.0000 C   0  0  0  0  0  0  0  0  0  0  0  0
    0.9200   -1.8100    0.0000 C   0  0  1  0  0  0  0  0  0  0  0  0
    2.2189   -2.5602    0.0000 O   0  0  0  0  0  0  0  0  0  0  0  0
    0.9200   -0.3100    0.0000 C   0  0  2  0  0  0  0  0  0  0  0  0
   -0.3800    0.4400    0.0000 C   0  0  2  0  0  0  0  0  0  0  0  0
   -0.3800    1.9400    0.0000 C   0  0  0  0  0  0  0  0  0  0  0  0
    0.9200    2.6900    0.0000 C   0  0  0  0  0  0  0  0  0  0  0  0
    2.2200    1.9400    0.0000 C   0  0  2  0  0  0  0  0  0  0  0  0
    2.3787    3.4316    0.0000 C   0  0  0  0  0  0  0  0  0  0  0  0
    3.6500    2.4000    0.0000 C   0  0  0  0  0  0  0  0  0  0  0  0
    4.1153    3.8260    0.0000 O   0  0  0  0  0  0  0  0  0  0  0  0
    4.5300    1.1900    0.0000 C   0  0  0  0  0  0  0  0  0  0  0  0
    3.6500   -0.0200    0.0000 C   0  0  0  0  0  0  0  0  0  0  0  0
    2.2200    0.4400    0.0000 C   0  0  1  0  0  0  0  0  0  0  0  0
    0.7187   -4.0600    0.0000 O   0  0  0  0  0  0  0  0  0  0  0  0
    2.2187   -4.0602    0.0000 S   0  0  0  0  0  0  0  0  0  0  0  0
    2.2184   -5.5602    0.0000 O   0  0  0  0  0  0  0  0  0  0  0  0
    3.7187   -4.0604    0.0000 O   0  0  0  0  0  0  0  0  0  0  0  0
  2  1  1  1  0  0  0
  2  3  1  0  0  0  0
  3  4  1  0  0  0  0
  4  5  1  0  0  0  0
  5  6  1  1  0  0  0
  5  7  1  0  0  0  0
  7  8  1  0  0  0  0
  2  8  1  0  0  0  0
  8  9  2  0  0  0  0
  9 10  1  0  0  0  0
 10 11  1  6  0  0  0
 12 10  1  6  0  0  0
 12 13  1  0  0  0  0
  2 13  1  0  0  0  0
 13 14  1  1  0  0  0
 14 15  1  0  0  0  0
 15 16  1  0  0  0  0
 16 17  1  1  0  0  0
 16 18  1  0  0  0  0
 18 19  2  0  0  0  0
 18 20  1  0  0  0  0
 20 21  1  0  0  0  0
 22 21  1  1  0  0  0
 12 22  1  0  0  0  0
 16 22  1  0  0  0  0
 23 24  1  0  0  0  0
 24 25  2  0  0  0  0
 24 26  2  0  0  0  0
 24 11  1  0  0  0  0
M  END
> <InChI>
InChI=1S/C19H28O6S/c1-18-7-5-12(20)9-11(18)10-15(25-26(22,23)24)17-13-3-4-16(21)19(13,2)8-6-14(17)18/h10,12-15,17,20H,3-9H2,1-2H3,(H,22,23,24)/t12-,13-,14-,15+,17-,18-,19-/m0/s1

> <InChIKey>
UNXRHVWWKGZNMQ-JIEICEMKSA-N

> <SMILES>
C[C@]12CC[C@H](O)CC1=C[C@@H](OS(O)(=O)=O)[C@@H]3[C@@H]2CC[C@]4(C)C(=O)CC[C@@H]34

> <Synonyms>


> <PUBCHEM_CID>


> <Molecular_formula>
C19H28O6S

> <Major_Isotope_Mass>
384.160659616

> <ALogP>
1.5845999999999976

> <Lipinski_Violations>
0

> <Insecticide_Likeness_Violations>
0

> <Post_Em_Herbicide_Likeness_Violations>
0

> <Metabolite_ID>
BTM00008

> <Reaction>
7-OH-Sulfation of sterol

> <Reaction_ID>
BTMR0504

> <Enzyme(s)>
EC 2.8.2.2

> <Biosystem>
HUMAN

> <Precursor_ID>


> <Precursor_SMILES>
C[C@]12CC[C@H](O)CC1=C[C@@H](O)[C@@H]3[C@@H]2CC[C@]4(C)C(=O)CC[C@@H]34

> <Precursor_InChI>
InChI=1S/C19H28O3/c1-18-7-5-12(20)9-11(18)10-15(21)17-13-3-4-16(22)19(13,2)8-6-14(17)18/h10,12-15,17,20-21H,3-9H2,1-2H3/t12-,13-,14-,15+,17-,18-,19-/m0/s1

> <Precursor_InChIKey>
OLPSAOWBSPXZEA-JIEICEMKSA-N

> <Precursor_ALogP>


> <Precursor_Major_Isotope_Mass>
304.2038

$$$$
