BTM00001
  CDK     09122622082D

 23 27  0  0  1  0  0  0  0  0999 V2000
   -2.9086    0.1793    0.0000 C   0  0  0  0  0  0  0  0  0  0  0  0
   -2.9086   -1.3207    0.0000 C   0  0  2  0  0  0  0  0  0  0  0  0
   -4.2077   -0.5707    0.0000 C   0  0  0  0  0  0  0  0  0  0  0  0
   -5.5067   -1.3207    0.0000 C   0  0  1  0  0  0  0  0  0  0  0  0
   -6.8058   -2.0707    0.0000 S   0  0  0  0  0  0  0  0  0  0  0  0
   -5.5067   -2.8207    0.0000 C   0  0  1  0  0  0  0  0  0  0  0  0
   -4.2077   -3.5707    0.0000 C   0  0  0  0  0  0  0  0  0  0  0  0
   -2.9086   -2.8207    0.0000 C   0  0  2  0  0  0  0  0  0  0  0  0
   -1.6096   -3.5707    0.0000 C   0  0  0  0  0  0  0  0  0  0  0  0
   -0.3106   -2.8207    0.0000 C   0  0  0  0  0  0  0  0  0  0  0  0
   -0.3106   -1.3207    0.0000 C   0  0  2  0  0  0  0  0  0  0  0  0
   -1.6096   -0.5707    0.0000 C   0  0  2  0  0  0  0  0  0  0  0  0
   -1.6096    0.9293    0.0000 C   0  0  0  0  0  0  0  0  0  0  0  0
   -0.3106    1.6793    0.0000 C   0  0  0  0  0  0  0  0  0  0  0  0
    0.9885    0.9293    0.0000 C   0  0  1  0  0  0  0  0  0  0  0  0
    1.1453    2.4211    0.0000 C   0  0  0  0  0  0  0  0  0  0  0  0
    0.9885   -0.5707    0.0000 C   0  0  1  0  0  0  0  0  0  0  0  0
    2.4151   -1.0342    0.0000 C   0  0  0  0  0  0  0  0  0  0  0  0
    3.2967    0.1793    0.0000 C   0  0  0  0  0  0  0  0  0  0  0  0
    2.4151    1.3928    0.0000 C   0  0  1  0  0  0  0  0  0  0  0  0
    3.7141    2.1428    0.0000 C   0  0  0  0  0  0  0  0  0  0  0  0
    2.4674   -0.1063    0.0000 O   0  0  0  0  0  0  0  0  0  0  0  0
   -2.9086    1.6793    0.0000 O   0  0  0  0  0  0  0  0  0  0  0  0
  2  1  1  1  0  0  0
  2  3  1  0  0  0  0
  3  4  1  0  0  0  0
  4  5  1  6  0  0  0
  6  5  1  6  0  0  0
  4  6  1  0  0  0  0
  6  7  1  0  0  0  0
  8  7  1  1  0  0  0
  2  8  1  0  0  0  0
  8  9  1  0  0  0  0
  9 10  1  0  0  0  0
 11 10  1  6  0  0  0
 11 12  1  0  0  0  0
  2 12  1  0  0  0  0
 12 13  1  1  0  0  0
 13 14  1  0  0  0  0
 14 15  1  0  0  0  0
 15 16  1  1  0  0  0
 15 17  1  0  0  0  0
 11 17  1  0  0  0  0
 17 18  1  1  0  0  0
 18 19  1  0  0  0  0
 20 19  1  6  0  0  0
 15 20  1  0  0  0  0
 20 21  1  0  0  0  0
 20 22  1  1  0  0  0
 23 13  1  0  0  0  0
M  END
> <InChI>
InChI=1S/C20H32O2S/c1-18-10-16-15(23-16)8-11(18)4-5-12-13-6-7-20(3,22)19(13,2)9-14(21)17(12)18/h11-17,21-22H,4-10H2,1-3H3/t11-,12-,13-,14?,15-,16+,17+,18-,19-,20-/m0/s1

> <InChIKey>
JRJPASBTPVMKFW-LUAAYJKUSA-N

> <SMILES>
C[C@]12C[C@H]3S[C@H]3C[C@@H]1CC[C@@H]4[C@@H]2C(C[C@@]5(C)[C@H]4CC[C@]5(C)O)O

> <Synonyms>


> <PUBCHEM_CID>


> <Molecular_formula>
C20H32O2S

> <Major_Isotope_Mass>
336.21230126399996

> <ALogP>
3.0677000000000003

> <Lipinski_Violations>
0

> <Insecticide_Likeness_Violations>
0

> <Post_Em_Herbicide_Likeness_Violations>
0

> <Metabolite_ID>
BTM00001

> <Reaction>
11-beta-Hydroxylation of sterol

> <Reaction_ID>
BTMR0406

> <Enzyme(s)>
EC 1.14.15.4

> <Biosystem>
HUMAN

> <Precursor_ID>


> <Precursor_SMILES>
C[C@]12C[C@H]3S[C@H]3C[C@@H]1CC[C@@H]4[C@@H]2CC[C@@]5(C)[C@H]4CC[C@]5(C)O

> <Precursor_InChI>
InChI=1S/C20H32OS/c1-18-11-17-16(22-17)10-12(18)4-5-13-14(18)6-8-19(2)15(13)7-9-20(19,3)21/h12-17,21H,4-11H2,1-3H3/t12-,13+,14-,15-,16-,17+,18-,19-,20-/m0/s1

> <Precursor_InChIKey>
UPLPHRJJTCUQAY-WIRWPRASSA-N

> <Precursor_ALogP>


> <Precursor_Major_Isotope_Mass>
320.2173

$$$$
BTM00002
  CDK     09122622082D

 34 39  0  0  1  0  0  0  0  0999 V2000
    0.9550    0.6045    0.0000 C   0  0  0  0  0  0  0  0  0  0  0  0
    2.2541    1.3545    0.0000 C   0  0  2  0  0  0  0  0  0  0  0  0
    2.2541   -0.1455    0.0000 C   0  0  0  0  0  0  0  0  0  0  0  0
    3.5531   -0.8955    0.0000 C   0  0  1  0  0  0  0  0  0  0  0  0
    4.8522   -1.6455    0.0000 S   0  0  0  0  0  0  0  0  0  0  0  0
    4.8522   -0.1455    0.0000 C   0  0  1  0  0  0  0  0  0  0  0  0
    4.8522    1.3545    0.0000 C   0  0  0  0  0  0  0  0  0  0  0  0
    3.5531    2.1045    0.0000 C   0  0  2  0  0  0  0  0  0  0  0  0
    3.5531    3.6045    0.0000 C   0  0  0  0  0  0  0  0  0  0  0  0
    2.2541    4.3545    0.0000 C   0  0  0  0  0  0  0  0  0  0  0  0
    0.9550    3.6045    0.0000 C   0  0  2  0  0  0  0  0  0  0  0  0
    0.9550    2.1045    0.0000 C   0  0  2  0  0  0  0  0  0  0  0  0
   -0.3440    1.3545    0.0000 C   0  0  0  0  0  0  0  0  0  0  0  0
   -1.6430    2.1045    0.0000 C   0  0  0  0  0  0  0  0  0  0  0  0
   -1.6430    3.6045    0.0000 C   0  0  1  0  0  0  0  0  0  0  0  0
   -3.0133    2.9944    0.0000 C   0  0  0  0  0  0  0  0  0  0  0  0
   -0.3440    4.3545    0.0000 C   0  0  1  0  0  0  0  0  0  0  0  0
   -0.6559    5.8217    0.0000 C   0  0  0  0  0  0  0  0  0  0  0  0
   -2.1476    5.9785    0.0000 C   0  0  0  0  0  0  0  0  0  0  0  0
   -2.7577    4.6082    0.0000 C   0  0  1  0  0  0  0  0  0  0  0  0
   -4.0568    5.3582    0.0000 C   0  0  0  0  0  0  0  0  0  0  0  0
   -3.9216    3.0064    0.0000 O   0  0  0  0  0  0  0  0  0  0  0  0
   -5.6888    0.5880    0.0000 O   0  0  0  0  0  0  0  0  0  0  0  0
   -6.2933    1.9607    0.0000 C   0  0  0  0  0  0  0  0  0  0  0  0
   -7.8074    2.1270    0.0000 C   0  0  0  0  0  0  0  0  0  0  0  0
   -8.6972    0.9195    0.0000 O   0  0  0  0  0  0  0  0  0  0  0  0
   -8.4076    3.5080    0.0000 C   0  0  0  0  0  0  0  0  0  0  0  0
   -9.8984    3.6740    0.0000 O   0  0  0  0  0  0  0  0  0  0  0  0
   -7.5276    4.7104    0.0000 C   0  0  0  0  0  0  0  0  0  0  0  0
   -6.0356    4.5479    0.0000 O   0  0  0  0  0  0  0  0  0  0  0  0
   -5.4133    3.1631    0.0000 C   0  0  0  0  0  0  0  0  0  0  0  0
   -8.1328    6.0830    0.0000 C   0  0  0  0  0  0  0  0  0  0  0  0
   -9.6240    6.2451    0.0000 O   0  0  0  0  0  0  0  0  0  0  0  0
   -7.2467    7.2933    0.0000 O   0  0  0  0  0  0  0  0  0  0  0  0
  2  1  1  1  0  0  0
  2  3  1  0  0  0  0
  3  4  1  0  0  0  0
  4  5  1  6  0  0  0
  6  5  1  6  0  0  0
  4  6  1  0  0  0  0
  6  7  1  0  0  0  0
  8  7  1  1  0  0  0
  2  8  1  0  0  0  0
  8  9  1  0  0  0  0
  9 10  1  0  0  0  0
 11 10  1  6  0  0  0
 11 12  1  0  0  0  0
  2 12  1  0  0  0  0
 12 13  1  1  0  0  0
 13 14  1  0  0  0  0
 14 15  1  0  0  0  0
 15 16  1  1  0  0  0
 15 17  1  0  0  0  0
 11 17  1  0  0  0  0
 17 18  1  1  0  0  0
 18 19  1  0  0  0  0
 19 20  1  0  0  0  0
 15 20  1  0  0  0  0
 20 21  1  6  0  0  0
 20 22  1  1  0  0  0
 23 24  1  0  0  0  0
 24 25  1  0  0  0  0
 25 26  1  0  0  0  0
 25 27  1  0  0  0  0
 27 28  1  0  0  0  0
 27 29  1  0  0  0  0
 29 30  1  0  0  0  0
 30 31  1  0  0  0  0
 24 31  1  0  0  0  0
 31 22  1  0  0  0  0
 29 32  1  0  0  0  0
 32 33  1  0  0  0  0
 32 34  2  0  0  0  0
M  END
> <InChI>
InChI=1S/C26H40O7S/c1-24-11-17-16(34-17)10-12(24)4-5-13-14(24)6-8-25(2)15(13)7-9-26(25,3)33-23-20(29)18(27)19(28)21(32-23)22(30)31/h12-21,23,27-29H,4-11H2,1-3H3,(H,30,31)/t12-,13+,14-,15-,16-,17+,18?,19?,20?,21?,23?,24-,25-,26-/m0/s1

> <InChIKey>
SCKCNSOPUZYTJR-BIFOAFHVSA-N

> <SMILES>
C[C@]12C[C@H]3S[C@H]3C[C@@H]1CC[C@@H]4[C@@H]2CC[C@@]5(C)[C@H]4CC[C@]5(C)OC6OC(C(C(C6O)O)O)C(O)=O

> <Synonyms>


> <PUBCHEM_CID>


> <Molecular_formula>
C26H40O7S

> <Major_Isotope_Mass>
496.24947462

> <ALogP>
2.6990999999999943

> <Lipinski_Violations>
0

> <Insecticide_Likeness_Violations>
1

> <Post_Em_Herbicide_Likeness_Violations>
1

> <Metabolite_ID>
BTM00002

> <Reaction>
17-OH-Glucuronidation of sterol

> <Reaction_ID>
BTMR0163

> <Enzyme(s)>
EC 2.4.1.17

> <Biosystem>
HUMAN

> <Precursor_ID>


> <Precursor_SMILES>
C[C@]12C[C@H]3S[C@H]3C[C@@H]1CC[C@@H]4[C@@H]2CC[C@@]5(C)[C@H]4CC[C@]5(C)O

> <Precursor_InChI>
InChI=1S/C20H32OS/c1-18-11-17-16(22-17)10-12(18)4-5-13-14(18)6-8-19(2)15(13)7-9-20(19,3)21/h12-17,21H,4-11H2,1-3H3/t12-,13+,14-,15-,16-,17+,18-,19-,20-/m0/s1

> <Precursor_InChIKey>
UPLPHRJJTCUQAY-WIRWPRASSA-N

> <Precursor_ALogP>


> <Precursor_Major_Isotope_Mass>
320.2173

$$$$
BTM00003
  CDK     09122622082D

 23 27  0  0  1  0  0  0  0  0999 V2000
   -2.5839    0.7418    0.0000 C   0  0  0  0  0  0  0  0  0  0  0  0
   -2.5839   -0.7582    0.0000 C   0  0  2  0  0  0  0  0  0  0  0  0
   -3.8829   -0.0082    0.0000 C   0  0  0  0  0  0  0  0  0  0  0  0
   -5.1820   -0.7582    0.0000 C   0  0  1  0  0  0  0  0  0  0  0  0
   -6.4810   -1.5082    0.0000 S   0  0  0  0  0  0  0  0  0  0  0  0
   -5.1820   -2.2582    0.0000 C   0  0  1  0  0  0  0  0  0  0  0  0
   -3.8829   -3.0082    0.0000 C   0  0  0  0  0  0  0  0  0  0  0  0
   -2.5839   -2.2582    0.0000 C   0  0  2  0  0  0  0  0  0  0  0  0
   -1.2848   -3.0082    0.0000 C   0  0  0  0  0  0  0  0  0  0  0  0
    0.0142   -2.2582    0.0000 C   0  0  0  0  0  0  0  0  0  0  0  0
    0.0142   -0.7582    0.0000 C   0  0  2  0  0  0  0  0  0  0  0  0
   -1.2848   -0.0082    0.0000 C   0  0  2  0  0  0  0  0  0  0  0  0
   -1.2848    1.4918    0.0000 C   0  0  0  0  0  0  0  0  0  0  0  0
    0.0142    2.2418    0.0000 C   0  0  0  0  0  0  0  0  0  0  0  0
    1.3132    1.4918    0.0000 C   0  0  1  0  0  0  0  0  0  0  0  0
    1.4700    2.9836    0.0000 C   0  0  0  0  0  0  0  0  0  0  0  0
    1.3132   -0.0082    0.0000 C   0  0  1  0  0  0  0  0  0  0  0  0
    2.7398   -0.4717    0.0000 C   0  0  0  0  0  0  0  0  0  0  0  0
    3.6215    0.7418    0.0000 C   0  0  0  0  0  0  0  0  0  0  0  0
    2.7398    1.9553    0.0000 C   0  0  1  0  0  0  0  0  0  0  0  0
    4.0389    2.7053    0.0000 C   0  0  0  0  0  0  0  0  0  0  0  0
    2.7922    0.4562    0.0000 O   0  0  0  0  0  0  0  0  0  0  0  0
    5.1215    0.7418    0.0000 O   0  0  0  0  0  0  0  0  0  0  0  0
  2  1  1  1  0  0  0
  2  3  1  0  0  0  0
  3  4  1  0  0  0  0
  4  5  1  6  0  0  0
  6  5  1  6  0  0  0
  4  6  1  0  0  0  0
  6  7  1  0  0  0  0
  8  7  1  1  0  0  0
  2  8  1  0  0  0  0
  8  9  1  0  0  0  0
  9 10  1  0  0  0  0
 11 10  1  6  0  0  0
 11 12  1  0  0  0  0
  2 12  1  0  0  0  0
 12 13  1  1  0  0  0
 13 14  1  0  0  0  0
 14 15  1  0  0  0  0
 15 16  1  1  0  0  0
 15 17  1  0  0  0  0
 11 17  1  0  0  0  0
 17 18  1  1  0  0  0
 18 19  1  0  0  0  0
 19 20  1  0  0  0  0
 15 20  1  0  0  0  0
 20 21  1  0  0  0  0
 20 22  1  1  0  0  0
 23 19  1  0  0  0  0
M  END
> <InChI>
InChI=1S/C20H32O2S/c1-18-10-16-15(23-16)8-11(18)4-5-12-13(18)6-7-19(2)14(12)9-17(21)20(19,3)22/h11-17,21-22H,4-10H2,1-3H3/t11-,12+,13-,14-,15-,16+,17?,18-,19-,20-/m0/s1

> <InChIKey>
SLYPACXKMYTACJ-LANNJROYSA-N

> <SMILES>
C[C@]12C[C@H]3S[C@H]3C[C@@H]1CC[C@@H]4[C@@H]2CC[C@@]5(C)[C@H]4CC([C@]5(C)O)O

> <Synonyms>


> <PUBCHEM_CID>


> <Molecular_formula>
C20H32O2S

> <Major_Isotope_Mass>
336.21230126399996

> <ALogP>
3.270199999999999

> <Lipinski_Violations>
1

> <Insecticide_Likeness_Violations>
0

> <Post_Em_Herbicide_Likeness_Violations>
0

> <Metabolite_ID>
BTM00003

> <Reaction>
16-Hydroxylation of sterol

> <Reaction_ID>
BTMR0407

> <Enzyme(s)>
CYP1A2
CYP2A6
CYP2B6
CYP2C8
CYP2C9
CYP2C19
CYP2D6
CYP2E1
CYP3A4

> <Biosystem>
HUMAN

> <Precursor_ID>


> <Precursor_SMILES>
C[C@]12C[C@H]3S[C@H]3C[C@@H]1CC[C@@H]4[C@@H]2CC[C@@]5(C)[C@H]4CC[C@]5(C)O

> <Precursor_InChI>
InChI=1S/C20H32OS/c1-18-11-17-16(22-17)10-12(18)4-5-13-14(18)6-8-19(2)15(13)7-9-20(19,3)21/h12-17,21H,4-11H2,1-3H3/t12-,13+,14-,15-,16-,17+,18-,19-,20-/m0/s1

> <Precursor_InChIKey>
UPLPHRJJTCUQAY-WIRWPRASSA-N

> <Precursor_ALogP>


> <Precursor_Major_Isotope_Mass>
320.2173

$$$$
BTM00004
  CDK     09122622082D

 23 27  0  0  1  0  0  0  0  0999 V2000
   -2.9589    0.0923    0.0000 C   0  0  0  0  0  0  0  0  0  0  0  0
   -2.9589   -1.4077    0.0000 C   0  0  2  0  0  0  0  0  0  0  0  0
   -4.2579   -0.6577    0.0000 C   0  0  0  0  0  0  0  0  0  0  0  0
   -5.5570   -1.4077    0.0000 C   0  0  0  0  0  0  0  0  0  0  0  0
   -6.8560   -2.1577    0.0000 S   0  0  0  0  0  0  0  0  0  0  0  0
   -5.5570   -2.9077    0.0000 C   0  0  1  0  0  0  0  0  0  0  0  0
   -4.2579   -3.6577    0.0000 C   0  0  0  0  0  0  0  0  0  0  0  0
   -2.9589   -2.9077    0.0000 C   0  0  2  0  0  0  0  0  0  0  0  0
   -1.6598   -3.6577    0.0000 C   0  0  0  0  0  0  0  0  0  0  0  0
   -0.3608   -2.9077    0.0000 C   0  0  0  0  0  0  0  0  0  0  0  0
   -0.3608   -1.4077    0.0000 C   0  0  2  0  0  0  0  0  0  0  0  0
   -1.6598   -0.6577    0.0000 C   0  0  2  0  0  0  0  0  0  0  0  0
   -1.6598    0.8423    0.0000 C   0  0  0  0  0  0  0  0  0  0  0  0
   -0.3608    1.5923    0.0000 C   0  0  0  0  0  0  0  0  0  0  0  0
    0.9382    0.8423    0.0000 C   0  0  1  0  0  0  0  0  0  0  0  0
    1.0950    2.3341    0.0000 C   0  0  0  0  0  0  0  0  0  0  0  0
    0.9382   -0.6577    0.0000 C   0  0  1  0  0  0  0  0  0  0  0  0
    2.3648   -1.1212    0.0000 C   0  0  0  0  0  0  0  0  0  0  0  0
    3.2465    0.0923    0.0000 C   0  0  0  0  0  0  0  0  0  0  0  0
    2.3648    1.3058    0.0000 C   0  0  1  0  0  0  0  0  0  0  0  0
    3.6639    2.0558    0.0000 C   0  0  0  0  0  0  0  0  0  0  0  0
    2.4172   -0.1933    0.0000 O   0  0  0  0  0  0  0  0  0  0  0  0
   -6.3070   -0.1087    0.0000 O   0  0  0  0  0  0  0  0  0  0  0  0
  2  1  1  1  0  0  0
  2  3  1  0  0  0  0
  3  4  1  0  0  0  0
  4  5  1  0  0  0  0
  6  5  1  6  0  0  0
  4  6  1  0  0  0  0
  6  7  1  0  0  0  0
  8  7  1  1  0  0  0
  2  8  1  0  0  0  0
  8  9  1  0  0  0  0
  9 10  1  0  0  0  0
 11 10  1  6  0  0  0
 11 12  1  0  0  0  0
  2 12  1  0  0  0  0
 12 13  1  1  0  0  0
 13 14  1  0  0  0  0
 14 15  1  0  0  0  0
 15 16  1  1  0  0  0
 15 17  1  0  0  0  0
 11 17  1  0  0  0  0
 17 18  1  1  0  0  0
 18 19  1  0  0  0  0
 20 19  1  6  0  0  0
 15 20  1  0  0  0  0
 20 21  1  0  0  0  0
 20 22  1  1  0  0  0
 23  4  1  0  0  0  0
M  END
> <InChI>
InChI=1S/C20H32O2S/c1-17-11-20(22)16(23-20)10-12(17)4-5-13-14(17)6-8-18(2)15(13)7-9-19(18,3)21/h12-16,21-22H,4-11H2,1-3H3/t12-,13+,14-,15-,16-,17-,18-,19-,20?/m0/s1

> <InChIKey>
RVXNWKVGSHBDFN-PYPCELPESA-N

> <SMILES>
C[C@]12CC3(S[C@H]3C[C@@H]1CC[C@@H]4[C@@H]2CC[C@@]5(C)[C@H]4CC[C@]5(C)O)O

> <Synonyms>


> <PUBCHEM_CID>


> <Molecular_formula>
C20H32O2S

> <Major_Isotope_Mass>
336.212301264

> <ALogP>
3.588399999999999

> <Lipinski_Violations>
1

> <Insecticide_Likeness_Violations>
0

> <Post_Em_Herbicide_Likeness_Violations>
0

> <Metabolite_ID>
BTM00004

> <Reaction>
2-Hydroxylation of sterol

> <Reaction_ID>
BTMR0398

> <Enzyme(s)>
CYP1A2
CYP2C19
CYP3A4

> <Biosystem>
HUMAN

> <Precursor_ID>


> <Precursor_SMILES>
C[C@]12C[C@H]3S[C@H]3C[C@@H]1CC[C@@H]4[C@@H]2CC[C@@]5(C)[C@H]4CC[C@]5(C)O

> <Precursor_InChI>
InChI=1S/C20H32OS/c1-18-11-17-16(22-17)10-12(18)4-5-13-14(18)6-8-19(2)15(13)7-9-20(19,3)21/h12-17,21H,4-11H2,1-3H3/t12-,13+,14-,15-,16-,17+,18-,19-,20-/m0/s1

> <Precursor_InChIKey>
UPLPHRJJTCUQAY-WIRWPRASSA-N

> <Precursor_ALogP>


> <Precursor_Major_Isotope_Mass>
320.2173

$$$$
BTM00005
  CDK     09122622082D

 23 27  0  0  1  0  0  0  0  0999 V2000
   -2.5839    0.7418    0.0000 C   0  0  0  0  0  0  0  0  0  0  0  0
   -2.5839   -0.7582    0.0000 C   0  0  2  0  0  0  0  0  0  0  0  0
   -3.8829   -0.0082    0.0000 C   0  0  0  0  0  0  0  0  0  0  0  0
   -5.1820   -0.7582    0.0000 C   0  0  1  0  0  0  0  0  0  0  0  0
   -6.4810   -1.5082    0.0000 S   0  0  0  0  0  0  0  0  0  0  0  0
   -5.1820   -2.2582    0.0000 C   0  0  1  0  0  0  0  0  0  0  0  0
   -3.8829   -3.0082    0.0000 C   0  0  0  0  0  0  0  0  0  0  0  0
   -2.5839   -2.2582    0.0000 C   0  0  2  0  0  0  0  0  0  0  0  0
   -1.2848   -3.0082    0.0000 C   0  0  0  0  0  0  0  0  0  0  0  0
    0.0142   -2.2582    0.0000 C   0  0  0  0  0  0  0  0  0  0  0  0
    0.0142   -0.7582    0.0000 C   0  0  2  0  0  0  0  0  0  0  0  0
   -1.2848   -0.0082    0.0000 C   0  0  2  0  0  0  0  0  0  0  0  0
   -1.2848    1.4918    0.0000 C   0  0  0  0  0  0  0  0  0  0  0  0
    0.0142    2.2418    0.0000 C   0  0  0  0  0  0  0  0  0  0  0  0
    1.3132    1.4918    0.0000 C   0  0  1  0  0  0  0  0  0  0  0  0
    1.4700    2.9836    0.0000 C   0  0  0  0  0  0  0  0  0  0  0  0
    1.3132   -0.0082    0.0000 C   0  0  1  0  0  0  0  0  0  0  0  0
    2.7398   -0.4717    0.0000 C   0  0  0  0  0  0  0  0  0  0  0  0
    3.6215    0.7418    0.0000 C   0  0  0  0  0  0  0  0  0  0  0  0
    2.7398    1.9553    0.0000 C   0  0  1  0  0  0  0  0  0  0  0  0
    4.0389    2.7053    0.0000 C   0  0  0  0  0  0  0  0  0  0  0  0
    2.7922    0.4562    0.0000 O   0  0  0  0  0  0  0  0  0  0  0  0
   -3.8829   -4.5082    0.0000 O   0  0  0  0  0  0  0  0  0  0  0  0
  2  1  1  1  0  0  0
  2  3  1  0  0  0  0
  3  4  1  0  0  0  0
  4  5  1  6  0  0  0
  6  5  1  6  0  0  0
  4  6  1  0  0  0  0
  6  7  1  0  0  0  0
  7  8  1  0  0  0  0
  2  8  1  0  0  0  0
  8  9  1  1  0  0  0
  9 10  1  0  0  0  0
 11 10  1  6  0  0  0
 11 12  1  0  0  0  0
  2 12  1  0  0  0  0
 12 13  1  1  0  0  0
 13 14  1  0  0  0  0
 14 15  1  0  0  0  0
 15 16  1  1  0  0  0
 15 17  1  0  0  0  0
 11 17  1  0  0  0  0
 17 18  1  1  0  0  0
 18 19  1  0  0  0  0
 20 19  1  6  0  0  0
 15 20  1  0  0  0  0
 20 21  1  0  0  0  0
 20 22  1  1  0  0  0
 23  7  1  0  0  0  0
M  END
> <InChI>
InChI=1S/C20H32O2S/c1-18-10-15-17(23-15)16(21)14(18)5-4-11-12(18)6-8-19(2)13(11)7-9-20(19,3)22/h11-17,21-22H,4-10H2,1-3H3/t11-,12+,13+,14+,15-,16?,17-,18-,19+,20+/m1/s1

> <InChIKey>
XTHGMORCQZNUMJ-CPYCUIKISA-N

> <SMILES>
C[C@]12C[C@H]3S[C@H]3C([C@@H]1CC[C@@H]4[C@@H]2CC[C@@]5(C)[C@H]4CC[C@]5(C)O)O

> <Synonyms>


> <PUBCHEM_CID>


> <Molecular_formula>
C20H32O2S

> <Major_Isotope_Mass>
336.21230126399996

> <ALogP>
3.337699999999999

> <Lipinski_Violations>
0

> <Insecticide_Likeness_Violations>
0

> <Post_Em_Herbicide_Likeness_Violations>
0

> <Metabolite_ID>
BTM00005

> <Reaction>
4-Hydroxylation of sterol

> <Reaction_ID>
BTMR0400

> <Enzyme(s)>
CYP1A2
CYP3A4

> <Biosystem>
HUMAN

> <Precursor_ID>


> <Precursor_SMILES>
C[C@]12C[C@H]3S[C@H]3C[C@@H]1CC[C@@H]4[C@@H]2CC[C@@]5(C)[C@H]4CC[C@]5(C)O

> <Precursor_InChI>
InChI=1S/C20H32OS/c1-18-11-17-16(22-17)10-12(18)4-5-13-14(18)6-8-19(2)15(13)7-9-20(19,3)21/h12-17,21H,4-11H2,1-3H3/t12-,13+,14-,15-,16-,17+,18-,19-,20-/m0/s1

> <Precursor_InChIKey>
UPLPHRJJTCUQAY-WIRWPRASSA-N

> <Precursor_ALogP>


> <Precursor_Major_Isotope_Mass>
320.2173

$$$$
BTM00006
  CDK     09122622082D

 23 27  0  0  1  0  0  0  0  0999 V2000
   -2.2089    0.0923    0.0000 C   0  0  0  0  0  0  0  0  0  0  0  0
   -2.2089   -1.4077    0.0000 C   0  0  2  0  0  0  0  0  0  0  0  0
   -3.5079   -0.6577    0.0000 C   0  0  0  0  0  0  0  0  0  0  0  0
   -4.8070   -1.4077    0.0000 C   0  0  1  0  0  0  0  0  0  0  0  0
   -6.1060   -2.1577    0.0000 S   0  0  0  0  0  0  0  0  0  0  0  0
   -4.8070   -2.9077    0.0000 C   0  0  1  0  0  0  0  0  0  0  0  0
   -3.5079   -3.6577    0.0000 C   0  0  0  0  0  0  0  0  0  0  0  0
   -2.2089   -2.9077    0.0000 C   0  0  2  0  0  0  0  0  0  0  0  0
   -0.9098   -3.6577    0.0000 C   0  0  0  0  0  0  0  0  0  0  0  0
    0.3892   -2.9077    0.0000 C   0  0  0  0  0  0  0  0  0  0  0  0
    0.3892   -1.4077    0.0000 C   0  0  2  0  0  0  0  0  0  0  0  0
   -0.9098   -0.6577    0.0000 C   0  0  2  0  0  0  0  0  0  0  0  0
   -0.9098    0.8423    0.0000 C   0  0  0  0  0  0  0  0  0  0  0  0
    0.3892    1.5923    0.0000 C   0  0  0  0  0  0  0  0  0  0  0  0
    1.6882    0.8423    0.0000 C   0  0  1  0  0  0  0  0  0  0  0  0
    1.8450    2.3341    0.0000 C   0  0  0  0  0  0  0  0  0  0  0  0
    1.6882   -0.6577    0.0000 C   0  0  1  0  0  0  0  0  0  0  0  0
    3.1148   -1.1212    0.0000 C   0  0  0  0  0  0  0  0  0  0  0  0
    3.9965    0.0923    0.0000 C   0  0  0  0  0  0  0  0  0  0  0  0
    3.1148    1.3058    0.0000 C   0  0  1  0  0  0  0  0  0  0  0  0
    4.4139    2.0558    0.0000 C   0  0  0  0  0  0  0  0  0  0  0  0
    3.1672   -0.1933    0.0000 O   0  0  0  0  0  0  0  0  0  0  0  0
   -7.6060   -2.1577    0.0000 O   0  0  0  0  0  0  0  0  0  0  0  0
  2  1  1  1  0  0  0
  2  3  1  0  0  0  0
  3  4  1  0  0  0  0
  4  5  1  6  0  0  0
  6  5  1  6  0  0  0
  4  6  1  0  0  0  0
  6  7  1  0  0  0  0
  8  7  1  1  0  0  0
  2  8  1  0  0  0  0
  8  9  1  0  0  0  0
  9 10  1  0  0  0  0
 11 10  1  6  0  0  0
 11 12  1  0  0  0  0
  2 12  1  0  0  0  0
 12 13  1  1  0  0  0
 13 14  1  0  0  0  0
 14 15  1  0  0  0  0
 15 16  1  1  0  0  0
 15 17  1  0  0  0  0
 11 17  1  0  0  0  0
 17 18  1  1  0  0  0
 18 19  1  0  0  0  0
 20 19  1  6  0  0  0
 15 20  1  0  0  0  0
 20 21  1  0  0  0  0
 20 22  1  1  0  0  0
  5 23  2  0  0  0  0
M  END
> <InChI>
InChI=1S/C20H32O2S/c1-18-11-17-16(23(17)22)10-12(18)4-5-13-14(18)6-8-19(2)15(13)7-9-20(19,3)21/h12-17,21H,4-11H2,1-3H3/t12-,13+,14-,15-,16-,17+,18-,19-,20-,23?/m0/s1

> <InChIKey>
REOKUIUMWSBCFF-YBPJRRQASA-N

> <SMILES>
C[C@]12C[C@H]3S([C@H]3C[C@@H]1CC[C@@H]4[C@@H]2CC[C@@]5(C)[C@H]4CC[C@]5(C)O)=O

> <Synonyms>


> <PUBCHEM_CID>


> <Molecular_formula>
C20H32O2S

> <Major_Isotope_Mass>
336.21230126399996

> <ALogP>
3.125299999999997

> <Lipinski_Violations>
0

> <Insecticide_Likeness_Violations>
0

> <Post_Em_Herbicide_Likeness_Violations>
0

> <Metabolite_ID>
BTM00006

> <Reaction>
S-Oxidation of dialkylthioether to sulfoxide

> <Reaction_ID>
BTMR0057

> <Enzyme(s)>
CYP1A2
CYP2A6
CYP2B6
CYP2C9
CYP2C19
CYP2D6
CYP3A4

> <Biosystem>
HUMAN

> <Precursor_ID>


> <Precursor_SMILES>
C[C@]12C[C@H]3S[C@H]3C[C@@H]1CC[C@@H]4[C@@H]2CC[C@@]5(C)[C@H]4CC[C@]5(C)O

> <Precursor_InChI>
InChI=1S/C20H32OS/c1-18-11-17-16(22-17)10-12(18)4-5-13-14(18)6-8-19(2)15(13)7-9-20(19,3)21/h12-17,21H,4-11H2,1-3H3/t12-,13+,14-,15-,16-,17+,18-,19-,20-/m0/s1

> <Precursor_InChIKey>
UPLPHRJJTCUQAY-WIRWPRASSA-N

> <Precursor_ALogP>


> <Precursor_Major_Isotope_Mass>
320.2173

$$$$
BTM00007
  CDK     09122622082D

 23 27  0  0  1  0  0  0  0  0999 V2000
   -2.9086    0.1793    0.0000 C   0  0  0  0  0  0  0  0  0  0  0  0
   -2.9086   -1.3207    0.0000 C   0  0  2  0  0  0  0  0  0  0  0  0
   -4.2077   -0.5707    0.0000 C   0  0  0  0  0  0  0  0  0  0  0  0
   -5.5067   -1.3207    0.0000 C   0  0  1  0  0  0  0  0  0  0  0  0
   -6.8058   -2.0707    0.0000 S   0  0  0  0  0  0  0  0  0  0  0  0
   -5.5067   -2.8207    0.0000 C   0  0  1  0  0  0  0  0  0  0  0  0
   -4.2077   -3.5707    0.0000 C   0  0  0  0  0  0  0  0  0  0  0  0
   -2.9086   -2.8207    0.0000 C   0  0  2  0  0  0  0  0  0  0  0  0
   -1.6096   -3.5707    0.0000 C   0  0  0  0  0  0  0  0  0  0  0  0
   -0.3106   -2.8207    0.0000 C   0  0  0  0  0  0  0  0  0  0  0  0
   -0.3106   -1.3207    0.0000 C   0  0  2  0  0  0  0  0  0  0  0  0
   -1.6096   -0.5707    0.0000 C   0  0  2  0  0  0  0  0  0  0  0  0
   -1.6096    0.9293    0.0000 C   0  0  0  0  0  0  0  0  0  0  0  0
   -0.3106    1.6793    0.0000 C   0  0  0  0  0  0  0  0  0  0  0  0
    0.9885    0.9293    0.0000 C   0  0  1  0  0  0  0  0  0  0  0  0
    1.1453    2.4211    0.0000 C   0  0  0  0  0  0  0  0  0  0  0  0
    0.9885   -0.5707    0.0000 C   0  0  1  0  0  0  0  0  0  0  0  0
    2.4151   -1.0342    0.0000 C   0  0  0  0  0  0  0  0  0  0  0  0
    3.2967    0.1793    0.0000 C   0  0  0  0  0  0  0  0  0  0  0  0
    2.4151    1.3928    0.0000 C   0  0  1  0  0  0  0  0  0  0  0  0
    3.7141    2.1428    0.0000 C   0  0  0  0  0  0  0  0  0  0  0  0
    2.4674   -0.1063    0.0000 O   0  0  0  0  0  0  0  0  0  0  0  0
   -4.2077    0.9293    0.0000 O   0  0  0  0  0  0  0  0  0  0  0  0
  2  1  1  1  0  0  0
  2  3  1  0  0  0  0
  3  4  1  0  0  0  0
  4  5  1  6  0  0  0
  6  5  1  6  0  0  0
  4  6  1  0  0  0  0
  6  7  1  0  0  0  0
  8  7  1  1  0  0  0
  2  8  1  0  0  0  0
  8  9  1  0  0  0  0
  9 10  1  0  0  0  0
 11 10  1  6  0  0  0
 11 12  1  0  0  0  0
  2 12  1  0  0  0  0
 12 13  1  1  0  0  0
 13 14  1  0  0  0  0
 14 15  1  0  0  0  0
 15 16  1  1  0  0  0
 15 17  1  0  0  0  0
 11 17  1  0  0  0  0
 17 18  1  1  0  0  0
 18 19  1  0  0  0  0
 20 19  1  6  0  0  0
 15 20  1  0  0  0  0
 20 21  1  0  0  0  0
 20 22  1  1  0  0  0
 23  3  1  0  0  0  0
M  END
> <InChI>
InChI=1S/C20H32O2S/c1-18-8-6-14-12(13(18)7-9-19(18,2)22)5-4-11-10-15-16(23-15)17(21)20(11,14)3/h11-17,21-22H,4-10H2,1-3H3/t11-,12-,13-,14-,15-,16-,17?,18-,19-,20-/m0/s1

> <InChIKey>
KJRIAKSITZOYII-DEPABYQGSA-N

> <SMILES>
C[C@]12C([C@H]3S[C@H]3C[C@@H]1CC[C@@H]4[C@@H]2CC[C@@]5(C)[C@H]4CC[C@]5(C)O)O

> <Synonyms>


> <PUBCHEM_CID>


> <Molecular_formula>
C20H32O2S

> <Major_Isotope_Mass>
336.21230126399996

> <ALogP>
3.405199999999999

> <Lipinski_Violations>
0

> <Insecticide_Likeness_Violations>
0

> <Post_Em_Herbicide_Likeness_Violations>
0

> <Metabolite_ID>
BTM00007

> <Reaction>
Hydroxylation of heteroalicyclic secondary carbon

> <Reaction_ID>
BTMR1071

> <Enzyme(s)>
CYP1A2

> <Biosystem>
HUMAN

> <Precursor_ID>


> <Precursor_SMILES>
C[C@]12C[C@H]3S[C@H]3C[C@@H]1CC[C@@H]4[C@@H]2CC[C@@]5(C)[C@H]4CC[C@]5(C)O

> <Precursor_InChI>
InChI=1S/C20H32OS/c1-18-11-17-16(22-17)10-12(18)4-5-13-14(18)6-8-19(2)15(13)7-9-20(19,3)21/h12-17,21H,4-11H2,1-3H3/t12-,13+,14-,15-,16-,17+,18-,19-,20-/m0/s1

> <Precursor_InChIKey>
UPLPHRJJTCUQAY-WIRWPRASSA-N

> <Precursor_ALogP>


> <Precursor_Major_Isotope_Mass>
320.2173

$$$$
BTM00005
  CDK     09122622082D

 23 27  0  0  1  0  0  0  0  0999 V2000
   -2.5839    0.7418    0.0000 C   0  0  0  0  0  0  0  0  0  0  0  0
   -2.5839   -0.7582    0.0000 C   0  0  2  0  0  0  0  0  0  0  0  0
   -3.8829   -0.0082    0.0000 C   0  0  0  0  0  0  0  0  0  0  0  0
   -5.1820   -0.7582    0.0000 C   0  0  1  0  0  0  0  0  0  0  0  0
   -6.4810   -1.5082    0.0000 S   0  0  0  0  0  0  0  0  0  0  0  0
   -5.1820   -2.2582    0.0000 C   0  0  1  0  0  0  0  0  0  0  0  0
   -3.8829   -3.0082    0.0000 C   0  0  0  0  0  0  0  0  0  0  0  0
   -2.5839   -2.2582    0.0000 C   0  0  2  0  0  0  0  0  0  0  0  0
   -1.2848   -3.0082    0.0000 C   0  0  0  0  0  0  0  0  0  0  0  0
    0.0142   -2.2582    0.0000 C   0  0  0  0  0  0  0  0  0  0  0  0
    0.0142   -0.7582    0.0000 C   0  0  2  0  0  0  0  0  0  0  0  0
   -1.2848   -0.0082    0.0000 C   0  0  2  0  0  0  0  0  0  0  0  0
   -1.2848    1.4918    0.0000 C   0  0  0  0  0  0  0  0  0  0  0  0
    0.0142    2.2418    0.0000 C   0  0  0  0  0  0  0  0  0  0  0  0
    1.3132    1.4918    0.0000 C   0  0  1  0  0  0  0  0  0  0  0  0
    1.4700    2.9836    0.0000 C   0  0  0  0  0  0  0  0  0  0  0  0
    1.3132   -0.0082    0.0000 C   0  0  1  0  0  0  0  0  0  0  0  0
    2.7398   -0.4717    0.0000 C   0  0  0  0  0  0  0  0  0  0  0  0
    3.6215    0.7418    0.0000 C   0  0  0  0  0  0  0  0  0  0  0  0
    2.7398    1.9553    0.0000 C   0  0  1  0  0  0  0  0  0  0  0  0
    4.0389    2.7053    0.0000 C   0  0  0  0  0  0  0  0  0  0  0  0
    2.7922    0.4562    0.0000 O   0  0  0  0  0  0  0  0  0  0  0  0
   -3.8829   -4.5082    0.0000 O   0  0  0  0  0  0  0  0  0  0  0  0
  2  1  1  1  0  0  0
  2  3  1  0  0  0  0
  3  4  1  0  0  0  0
  4  5  1  6  0  0  0
  6  5  1  6  0  0  0
  4  6  1  0  0  0  0
  6  7  1  0  0  0  0
  7  8  1  0  0  0  0
  2  8  1  0  0  0  0
  8  9  1  1  0  0  0
  9 10  1  0  0  0  0
 11 10  1  6  0  0  0
 11 12  1  0  0  0  0
  2 12  1  0  0  0  0
 12 13  1  1  0  0  0
 13 14  1  0  0  0  0
 14 15  1  0  0  0  0
 15 16  1  1  0  0  0
 15 17  1  0  0  0  0
 11 17  1  0  0  0  0
 17 18  1  1  0  0  0
 18 19  1  0  0  0  0
 20 19  1  6  0  0  0
 15 20  1  0  0  0  0
 20 21  1  0  0  0  0
 20 22  1  1  0  0  0
 23  7  1  0  0  0  0
M  END
> <InChI>
InChI=1S/C20H32O2S/c1-18-10-15-17(23-15)16(21)14(18)5-4-11-12(18)6-8-19(2)13(11)7-9-20(19,3)22/h11-17,21-22H,4-10H2,1-3H3/t11-,12+,13+,14+,15-,16?,17-,18-,19+,20+/m1/s1

> <InChIKey>
XTHGMORCQZNUMJ-CPYCUIKISA-N

> <SMILES>
C[C@]12C[C@H]3S[C@H]3C([C@@H]1CC[C@@H]4[C@@H]2CC[C@@]5(C)[C@H]4CC[C@]5(C)O)O

> <Synonyms>


> <PUBCHEM_CID>


> <Molecular_formula>
C20H32O2S

> <Major_Isotope_Mass>
336.21230126399996

> <ALogP>
3.337699999999999

> <Lipinski_Violations>
0

> <Insecticide_Likeness_Violations>
0

> <Post_Em_Herbicide_Likeness_Violations>
0

> <Metabolite_ID>
BTM00005

> <Reaction>
Hydroxylation of heteroalicyclic secondary carbon

> <Reaction_ID>
BTMR1071

> <Enzyme(s)>
CYP1A2

> <Biosystem>
HUMAN

> <Precursor_ID>


> <Precursor_SMILES>
C[C@]12C[C@H]3S[C@H]3C[C@@H]1CC[C@@H]4[C@@H]2CC[C@@]5(C)[C@H]4CC[C@]5(C)O

> <Precursor_InChI>
InChI=1S/C20H32OS/c1-18-11-17-16(22-17)10-12(18)4-5-13-14(18)6-8-19(2)15(13)7-9-20(19,3)21/h12-17,21H,4-11H2,1-3H3/t12-,13+,14-,15-,16-,17+,18-,19-,20-/m0/s1

> <Precursor_InChIKey>
UPLPHRJJTCUQAY-WIRWPRASSA-N

> <Precursor_ALogP>


> <Precursor_Major_Isotope_Mass>
320.2173

$$$$
BTM00008
  CDK     09122622082D

 23 27  0  0  1  0  0  0  0  0999 V2000
   -2.2591    1.3043    0.0000 C   0  0  0  0  0  0  0  0  0  0  0  0
   -2.2591   -0.1957    0.0000 C   0  0  2  0  0  0  0  0  0  0  0  0
   -3.5582    0.5543    0.0000 C   0  0  0  0  0  0  0  0  0  0  0  0
   -4.8572   -0.1957    0.0000 C   0  0  1  0  0  0  0  0  0  0  0  0
   -6.1562   -0.9457    0.0000 S   0  0  0  0  0  0  0  0  0  0  0  0
   -4.8572   -1.6957    0.0000 C   0  0  1  0  0  0  0  0  0  0  0  0
   -3.5582   -2.4457    0.0000 C   0  0  0  0  0  0  0  0  0  0  0  0
   -2.2591   -1.6957    0.0000 C   0  0  2  0  0  0  0  0  0  0  0  0
   -0.9601   -2.4457    0.0000 C   0  0  0  0  0  0  0  0  0  0  0  0
    0.3390   -1.6957    0.0000 C   0  0  0  0  0  0  0  0  0  0  0  0
    0.3390   -0.1957    0.0000 C   0  0  2  0  0  0  0  0  0  0  0  0
   -0.9601    0.5543    0.0000 C   0  0  2  0  0  0  0  0  0  0  0  0
   -0.9601    2.0543    0.0000 C   0  0  0  0  0  0  0  0  0  0  0  0
    0.3390    2.8043    0.0000 C   0  0  0  0  0  0  0  0  0  0  0  0
    1.6380    2.0543    0.0000 C   0  0  1  0  0  0  0  0  0  0  0  0
    1.7948    3.5461    0.0000 C   0  0  0  0  0  0  0  0  0  0  0  0
    1.6380    0.5543    0.0000 C   0  0  1  0  0  0  0  0  0  0  0  0
    3.0646    0.0908    0.0000 C   0  0  0  0  0  0  0  0  0  0  0  0
    3.9463    1.3043    0.0000 C   0  0  0  0  0  0  0  0  0  0  0  0
    3.0646    2.5178    0.0000 C   0  0  1  0  0  0  0  0  0  0  0  0
    4.3636    3.2678    0.0000 C   0  0  0  0  0  0  0  0  0  0  0  0
    3.1169    1.0187    0.0000 O   0  0  0  0  0  0  0  0  0  0  0  0
   -0.9601   -3.9457    0.0000 O   0  0  0  0  0  0  0  0  0  0  0  0
  2  1  1  1  0  0  0
  2  3  1  0  0  0  0
  3  4  1  0  0  0  0
  4  5  1  6  0  0  0
  6  5  1  6  0  0  0
  4  6  1  0  0  0  0
  6  7  1  0  0  0  0
  8  7  1  1  0  0  0
  2  8  1  0  0  0  0
  8  9  1  0  0  0  0
  9 10  1  0  0  0  0
 11 10  1  6  0  0  0
 11 12  1  0  0  0  0
  2 12  1  0  0  0  0
 12 13  1  1  0  0  0
 13 14  1  0  0  0  0
 14 15  1  0  0  0  0
 15 16  1  1  0  0  0
 15 17  1  0  0  0  0
 11 17  1  0  0  0  0
 17 18  1  1  0  0  0
 18 19  1  0  0  0  0
 20 19  1  6  0  0  0
 15 20  1  0  0  0  0
 20 21  1  0  0  0  0
 20 22  1  1  0  0  0
 23  9  1  0  0  0  0
M  END
> <InChI>
InChI=1S/C20H32O2S/c1-18-10-17-16(23-17)9-14(18)15(21)8-11-12(18)4-6-19(2)13(11)5-7-20(19,3)22/h11-17,21-22H,4-10H2,1-3H3/t11-,12+,13+,14-,15?,16+,17-,18-,19+,20+/m1/s1

> <InChIKey>
MDQODKLYEXTBOU-FRNOKBSESA-N

> <SMILES>
C[C@]12C[C@H]3S[C@H]3C[C@@H]1C(C[C@@H]4[C@@H]2CC[C@@]5(C)[C@H]4CC[C@]5(C)O)O

> <Synonyms>


> <PUBCHEM_CID>


> <Molecular_formula>
C20H32O2S

> <Major_Isotope_Mass>
336.212301264

> <ALogP>
3.0677000000000003

> <Lipinski_Violations>
0

> <Insecticide_Likeness_Violations>
0

> <Post_Em_Herbicide_Likeness_Violations>
0

> <Metabolite_ID>
BTM00008

> <Reaction>
6-Hydroxylation of sterol

> <Reaction_ID>
BTMR0402

> <Enzyme(s)>
CYP2A6
CYP2B6
CYP2C8
CYP2C9
CYP2C19
CYP2D6
CYP3A4

> <Biosystem>
HUMAN

> <Precursor_ID>


> <Precursor_SMILES>
C[C@]12C[C@H]3S[C@H]3C[C@@H]1CC[C@@H]4[C@@H]2CC[C@@]5(C)[C@H]4CC[C@]5(C)O

> <Precursor_InChI>
InChI=1S/C20H32OS/c1-18-11-17-16(22-17)10-12(18)4-5-13-14(18)6-8-19(2)15(13)7-9-20(19,3)21/h12-17,21H,4-11H2,1-3H3/t12-,13+,14-,15-,16-,17+,18-,19-,20-/m0/s1

> <Precursor_InChIKey>
UPLPHRJJTCUQAY-WIRWPRASSA-N

> <Precursor_ALogP>


> <Precursor_Major_Isotope_Mass>
320.2173

$$$$
BTM00009
  CDK     09122622082D

 23 27  0  0  1  0  0  0  0  0999 V2000
   -2.9086    0.1793    0.0000 C   0  0  0  0  0  0  0  0  0  0  0  0
   -2.9086   -1.3207    0.0000 C   0  0  2  0  0  0  0  0  0  0  0  0
   -4.2077   -0.5707    0.0000 C   0  0  0  0  0  0  0  0  0  0  0  0
   -5.5067   -1.3207    0.0000 C   0  0  1  0  0  0  0  0  0  0  0  0
   -6.8058   -2.0707    0.0000 S   0  0  0  0  0  0  0  0  0  0  0  0
   -5.5067   -2.8207    0.0000 C   0  0  1  0  0  0  0  0  0  0  0  0
   -4.2077   -3.5707    0.0000 C   0  0  0  0  0  0  0  0  0  0  0  0
   -2.9086   -2.8207    0.0000 C   0  0  2  0  0  0  0  0  0  0  0  0
   -1.6096   -3.5707    0.0000 C   0  0  0  0  0  0  0  0  0  0  0  0
   -0.3106   -2.8207    0.0000 C   0  0  0  0  0  0  0  0  0  0  0  0
   -0.3106   -1.3207    0.0000 C   0  0  2  0  0  0  0  0  0  0  0  0
   -1.6096   -0.5707    0.0000 C   0  0  2  0  0  0  0  0  0  0  0  0
   -1.6096    0.9293    0.0000 C   0  0  0  0  0  0  0  0  0  0  0  0
   -0.3106    1.6793    0.0000 C   0  0  0  0  0  0  0  0  0  0  0  0
    0.9885    0.9293    0.0000 C   0  0  1  0  0  0  0  0  0  0  0  0
    1.1453    2.4211    0.0000 C   0  0  0  0  0  0  0  0  0  0  0  0
    0.9885   -0.5707    0.0000 C   0  0  1  0  0  0  0  0  0  0  0  0
    2.4151   -1.0342    0.0000 C   0  0  0  0  0  0  0  0  0  0  0  0
    3.2967    0.1793    0.0000 C   0  0  0  0  0  0  0  0  0  0  0  0
    2.4151    1.3928    0.0000 C   0  0  1  0  0  0  0  0  0  0  0  0
    3.7141    2.1428    0.0000 C   0  0  0  0  0  0  0  0  0  0  0  0
    2.4674   -0.1063    0.0000 O   0  0  0  0  0  0  0  0  0  0  0  0
   -4.2077    0.9293    0.0000 O   0  0  0  0  0  0  0  0  0  0  0  0
  2  1  1  1  0  0  0
  2  3  1  0  0  0  0
  3  4  1  0  0  0  0
  4  5  1  6  0  0  0
  6  5  1  6  0  0  0
  4  6  1  0  0  0  0
  6  7  1  0  0  0  0
  8  7  1  1  0  0  0
  2  8  1  0  0  0  0
  8  9  1  0  0  0  0
  9 10  1  0  0  0  0
 11 10  1  6  0  0  0
 11 12  1  0  0  0  0
  2 12  1  0  0  0  0
 12 13  1  1  0  0  0
 13 14  1  0  0  0  0
 14 15  1  0  0  0  0
 15 16  1  1  0  0  0
 15 17  1  0  0  0  0
 11 17  1  0  0  0  0
 17 18  1  1  0  0  0
 18 19  1  0  0  0  0
 20 19  1  6  0  0  0
 15 20  1  0  0  0  0
 20 21  1  0  0  0  0
 20 22  1  1  0  0  0
 23  1  1  0  0  0  0
M  END
> <InChI>
InChI=1S/C20H32O2S/c1-18-7-5-15-13(14(18)6-8-19(18,2)22)4-3-12-9-16-17(23-16)10-20(12,15)11-21/h12-17,21-22H,3-11H2,1-2H3/t12-,13-,14-,15-,16-,17+,18-,19-,20+/m0/s1

> <InChIKey>
KLHDXSYIKDOECD-KGCKJPIPSA-N

> <SMILES>
C([C@]12C[C@H]3S[C@H]3C[C@@H]1CC[C@@H]4[C@@H]2CC[C@@]5(C)[C@H]4CC[C@]5(C)O)O

> <Synonyms>


> <PUBCHEM_CID>


> <Molecular_formula>
C20H32O2S

> <Major_Isotope_Mass>
336.212301264

> <ALogP>
3.1464

> <Lipinski_Violations>
0

> <Insecticide_Likeness_Violations>
0

> <Post_Em_Herbicide_Likeness_Violations>
0

> <Metabolite_ID>
BTM00009

> <Reaction>
Hydroxylation of methyl carbon adjacent to aliphatic ring

> <Reaction_ID>
BTMR0054

> <Enzyme(s)>
CYP2B6
CYP2C8
CYP2C9
CYP2C19
CYP2D6
CYP3A4

> <Biosystem>
HUMAN

> <Precursor_ID>


> <Precursor_SMILES>
C[C@]12C[C@H]3S[C@H]3C[C@@H]1CC[C@@H]4[C@@H]2CC[C@@]5(C)[C@H]4CC[C@]5(C)O

> <Precursor_InChI>
InChI=1S/C20H32OS/c1-18-11-17-16(22-17)10-12(18)4-5-13-14(18)6-8-19(2)15(13)7-9-20(19,3)21/h12-17,21H,4-11H2,1-3H3/t12-,13+,14-,15-,16-,17+,18-,19-,20-/m0/s1

> <Precursor_InChIKey>
UPLPHRJJTCUQAY-WIRWPRASSA-N

> <Precursor_ALogP>


> <Precursor_Major_Isotope_Mass>
320.2173

$$$$
BTM00010
  CDK     09122622082D

 23 27  0  0  1  0  0  0  0  0999 V2000
   -2.9086    0.9293    0.0000 C   0  0  0  0  0  0  0  0  0  0  0  0
   -2.9086   -0.5707    0.0000 C   0  0  2  0  0  0  0  0  0  0  0  0
   -4.2077    0.1793    0.0000 C   0  0  0  0  0  0  0  0  0  0  0  0
   -5.5067   -0.5707    0.0000 C   0  0  1  0  0  0  0  0  0  0  0  0
   -6.8058   -1.3207    0.0000 S   0  0  0  0  0  0  0  0  0  0  0  0
   -5.5067   -2.0707    0.0000 C   0  0  1  0  0  0  0  0  0  0  0  0
   -4.2077   -2.8207    0.0000 C   0  0  0  0  0  0  0  0  0  0  0  0
   -2.9086   -2.0707    0.0000 C   0  0  2  0  0  0  0  0  0  0  0  0
   -1.6096   -2.8207    0.0000 C   0  0  0  0  0  0  0  0  0  0  0  0
   -0.3106   -2.0707    0.0000 C   0  0  0  0  0  0  0  0  0  0  0  0
   -0.3106   -0.5707    0.0000 C   0  0  2  0  0  0  0  0  0  0  0  0
   -1.6096    0.1793    0.0000 C   0  0  2  0  0  0  0  0  0  0  0  0
   -1.6096    1.6793    0.0000 C   0  0  0  0  0  0  0  0  0  0  0  0
   -0.3106    2.4293    0.0000 C   0  0  0  0  0  0  0  0  0  0  0  0
    0.9885    1.6793    0.0000 C   0  0  1  0  0  0  0  0  0  0  0  0
    1.1453    3.1711    0.0000 C   0  0  0  0  0  0  0  0  0  0  0  0
    0.9885    0.1793    0.0000 C   0  0  1  0  0  0  0  0  0  0  0  0
    2.4151   -0.2842    0.0000 C   0  0  0  0  0  0  0  0  0  0  0  0
    3.2967    0.9293    0.0000 C   0  0  0  0  0  0  0  0  0  0  0  0
    2.4151    2.1428    0.0000 C   0  0  1  0  0  0  0  0  0  0  0  0
    3.7141    2.8928    0.0000 C   0  0  0  0  0  0  0  0  0  0  0  0
    2.4674    0.6437    0.0000 O   0  0  0  0  0  0  0  0  0  0  0  0
    5.0131    2.1428    0.0000 O   0  0  0  0  0  0  0  0  0  0  0  0
  2  1  1  1  0  0  0
  2  3  1  0  0  0  0
  3  4  1  0  0  0  0
  4  5  1  6  0  0  0
  6  5  1  6  0  0  0
  4  6  1  0  0  0  0
  6  7  1  0  0  0  0
  8  7  1  1  0  0  0
  2  8  1  0  0  0  0
  8  9  1  0  0  0  0
  9 10  1  0  0  0  0
 11 10  1  6  0  0  0
 11 12  1  0  0  0  0
  2 12  1  0  0  0  0
 12 13  1  1  0  0  0
 13 14  1  0  0  0  0
 14 15  1  0  0  0  0
 15 16  1  1  0  0  0
 15 17  1  0  0  0  0
 11 17  1  0  0  0  0
 17 18  1  1  0  0  0
 18 19  1  0  0  0  0
 20 19  1  6  0  0  0
 15 20  1  0  0  0  0
 20 21  1  0  0  0  0
 20 22  1  1  0  0  0
 23 21  1  0  0  0  0
M  END
> <InChI>
InChI=1S/C20H32O2S/c1-18-10-17-16(23-17)9-12(18)3-4-13-14(18)5-7-19(2)15(13)6-8-20(19,22)11-21/h12-17,21-22H,3-11H2,1-2H3/t12-,13+,14-,15-,16-,17+,18-,19-,20+/m0/s1

> <InChIKey>
ODAFNSJLOMRBMU-DXKZDWQESA-N

> <SMILES>
C[C@]12C[C@H]3S[C@H]3C[C@@H]1CC[C@@H]4[C@@H]2CC[C@@]5(C)[C@H]4CC[C@]5(CO)O

> <Synonyms>


> <PUBCHEM_CID>


> <Molecular_formula>
C20H32O2S

> <Major_Isotope_Mass>
336.21230126399996

> <ALogP>
3.3488999999999995

> <Lipinski_Violations>
0

> <Insecticide_Likeness_Violations>
0

> <Post_Em_Herbicide_Likeness_Violations>
0

> <Metabolite_ID>
BTM00010

> <Reaction>
Hydroxylation of methyl carbon adjacent to aliphatic ring

> <Reaction_ID>
BTMR0054

> <Enzyme(s)>
CYP2B6
CYP2C8
CYP2C9
CYP2C19
CYP2D6
CYP3A4

> <Biosystem>
HUMAN

> <Precursor_ID>


> <Precursor_SMILES>
C[C@]12C[C@H]3S[C@H]3C[C@@H]1CC[C@@H]4[C@@H]2CC[C@@]5(C)[C@H]4CC[C@]5(C)O

> <Precursor_InChI>
InChI=1S/C20H32OS/c1-18-11-17-16(22-17)10-12(18)4-5-13-14(18)6-8-19(2)15(13)7-9-20(19,3)21/h12-17,21H,4-11H2,1-3H3/t12-,13+,14-,15-,16-,17+,18-,19-,20-/m0/s1

> <Precursor_InChIKey>
UPLPHRJJTCUQAY-WIRWPRASSA-N

> <Precursor_ALogP>


> <Precursor_Major_Isotope_Mass>
320.2173

$$$$
BTM00011
  CDK     09122622082D

 23 27  0  0  1  0  0  0  0  0999 V2000
   -2.9051    0.1855    0.0000 C   0  0  0  0  0  0  0  0  0  0  0  0
   -2.9051   -1.3145    0.0000 C   0  0  2  0  0  0  0  0  0  0  0  0
   -4.2041   -0.5645    0.0000 C   0  0  0  0  0  0  0  0  0  0  0  0
   -5.5032   -1.3145    0.0000 C   0  0  1  0  0  0  0  0  0  0  0  0
   -6.8022   -2.0645    0.0000 S   0  0  0  0  0  0  0  0  0  0  0  0
   -5.5032   -2.8145    0.0000 C   0  0  1  0  0  0  0  0  0  0  0  0
   -4.2041   -3.5645    0.0000 C   0  0  0  0  0  0  0  0  0  0  0  0
   -2.9051   -2.8145    0.0000 C   0  0  2  0  0  0  0  0  0  0  0  0
   -1.6060   -3.5645    0.0000 C   0  0  0  0  0  0  0  0  0  0  0  0
   -0.3070   -2.8145    0.0000 C   0  0  0  0  0  0  0  0  0  0  0  0
   -0.3070   -1.3145    0.0000 C   0  0  2  0  0  0  0  0  0  0  0  0
   -1.6060   -0.5645    0.0000 C   0  0  2  0  0  0  0  0  0  0  0  0
   -1.6060    0.9355    0.0000 C   0  0  0  0  0  0  0  0  0  0  0  0
   -0.3070    1.6855    0.0000 C   0  0  0  0  0  0  0  0  0  0  0  0
    0.9920    0.9355    0.0000 C   0  0  1  0  0  0  0  0  0  0  0  0
    1.1488    2.4273    0.0000 C   0  0  0  0  0  0  0  0  0  0  0  0
    0.9920   -0.5645    0.0000 C   0  0  1  0  0  0  0  0  0  0  0  0
    2.4186   -1.0281    0.0000 C   0  0  0  0  0  0  0  0  0  0  0  0
    3.3003    0.1855    0.0000 C   0  0  0  0  0  0  0  0  0  0  0  0
    2.4186    1.3990    0.0000 C   0  0  1  0  0  0  0  0  0  0  0  0
    3.7177    2.1490    0.0000 C   0  0  0  0  0  0  0  0  0  0  0  0
    2.0557    2.8544    0.0000 O   0  0  0  0  0  0  0  0  0  0  0  0
   -0.0647    3.3089    0.0000 O   0  0  0  0  0  0  0  0  0  0  0  0
  2  1  1  1  0  0  0
  2  3  1  0  0  0  0
  3  4  1  0  0  0  0
  4  5  1  6  0  0  0
  6  5  1  6  0  0  0
  4  6  1  0  0  0  0
  6  7  1  0  0  0  0
  8  7  1  1  0  0  0
  2  8  1  0  0  0  0
  8  9  1  0  0  0  0
  9 10  1  0  0  0  0
 11 10  1  6  0  0  0
 11 12  1  0  0  0  0
  2 12  1  0  0  0  0
 12 13  1  1  0  0  0
 13 14  1  0  0  0  0
 14 15  1  0  0  0  0
 15 16  1  1  0  0  0
 15 17  1  0  0  0  0
 11 17  1  0  0  0  0
 17 18  1  1  0  0  0
 18 19  1  0  0  0  0
 19 20  1  0  0  0  0
 15 20  1  0  0  0  0
 20 21  1  6  0  0  0
 20 22  1  1  0  0  0
 23 16  1  0  0  0  0
M  END
> <InChI>
InChI=1S/C20H32O2S/c1-18-10-17-16(23-17)9-12(18)3-4-13-14(18)6-8-20(11-21)15(13)5-7-19(20,2)22/h12-17,21-22H,3-11H2,1-2H3/t12-,13+,14-,15-,16-,17+,18-,19-,20+/m0/s1

> <InChIKey>
YYJABUBRIHMEDA-DXKZDWQESA-N

> <SMILES>
C[C@]12C[C@H]3S[C@H]3C[C@@H]1CC[C@@H]4[C@@H]2CC[C@@]5(CO)[C@H]4CC[C@]5(C)O

> <Synonyms>


> <PUBCHEM_CID>


> <Molecular_formula>
C20H32O2S

> <Major_Isotope_Mass>
336.212301264

> <ALogP>
3.1464

> <Lipinski_Violations>
1

> <Insecticide_Likeness_Violations>
0

> <Post_Em_Herbicide_Likeness_Violations>
0

> <Metabolite_ID>
BTM00011

> <Reaction>
Hydroxylation of methyl carbon adjacent to aliphatic ring

> <Reaction_ID>
BTMR0054

> <Enzyme(s)>
CYP2B6
CYP2C8
CYP2C9
CYP2C19
CYP2D6
CYP3A4

> <Biosystem>
HUMAN

> <Precursor_ID>


> <Precursor_SMILES>
C[C@]12C[C@H]3S[C@H]3C[C@@H]1CC[C@@H]4[C@@H]2CC[C@@]5(C)[C@H]4CC[C@]5(C)O

> <Precursor_InChI>
InChI=1S/C20H32OS/c1-18-11-17-16(22-17)10-12(18)4-5-13-14(18)6-8-19(2)15(13)7-9-20(19,3)21/h12-17,21H,4-11H2,1-3H3/t12-,13+,14-,15-,16-,17+,18-,19-,20-/m0/s1

> <Precursor_InChIKey>
UPLPHRJJTCUQAY-WIRWPRASSA-N

> <Precursor_ALogP>


> <Precursor_Major_Isotope_Mass>
320.2173

$$$$
