BTM00001
  CDK     09122622092D

 22 25  0  0  1  0  0  0  0  0999 V2000
   -1.6800    1.1900    0.0000 C   0  0  0  0  0  0  0  0  0  0  0  0
   -1.6800   -0.3100    0.0000 C   0  0  2  0  0  0  0  0  0  0  0  0
   -2.9800    0.4400    0.0000 C   0  0  0  0  0  0  0  0  0  0  0  0
   -4.2800   -0.3100    0.0000 C   0  0  0  0  0  0  0  0  0  0  0  0
   -4.2800   -1.8100    0.0000 C   0  0  0  0  0  0  0  0  0  0  0  0
   -5.5789   -2.5602    0.0000 O   0  0  0  0  0  0  0  0  0  0  0  0
   -2.9800   -2.5600    0.0000 C   0  0  0  0  0  0  0  0  0  0  0  0
   -1.6800   -1.8100    0.0000 C   0  0  0  0  0  0  0  0  0  0  0  0
   -0.3800   -2.5600    0.0000 C   0  0  0  0  0  0  0  0  0  0  0  0
    0.9200   -1.8100    0.0000 C   0  0  0  0  0  0  0  0  0  0  0  0
    0.9200   -0.3100    0.0000 C   0  0  2  0  0  0  0  0  0  0  0  0
   -0.3800    0.4400    0.0000 C   0  0  2  0  0  0  0  0  0  0  0  0
   -0.3800    1.9400    0.0000 C   0  0  0  0  0  0  0  0  0  0  0  0
    0.9200    2.6900    0.0000 C   0  0  0  0  0  0  0  0  0  0  0  0
    2.2200    1.9400    0.0000 C   0  0  1  0  0  0  0  0  0  0  0  0
    2.3787    3.4316    0.0000 C   0  0  0  0  0  0  0  0  0  0  0  0
    2.2200    0.4400    0.0000 C   0  0  1  0  0  0  0  0  0  0  0  0
    3.6500   -0.0200    0.0000 C   0  0  0  0  0  0  0  0  0  0  0  0
    4.5300    1.1900    0.0000 C   0  0  0  0  0  0  0  0  0  0  0  0
    3.6500    2.4000    0.0000 C   0  0  1  0  0  0  0  0  0  0  0  0
    4.9495    3.1491    0.0000 C   0  0  0  0  0  0  0  0  0  0  0  0
    3.6962    0.9007    0.0000 O   0  0  0  0  0  0  0  0  0  0  0  0
  2  1  1  1  0  0  0
  2  3  1  0  0  0  0
  3  4  1  0  0  0  0
  4  5  1  0  0  0  0
  5  6  2  0  0  0  0
  5  7  1  0  0  0  0
  7  8  1  0  0  0  0
  2  8  1  0  0  0  0
  8  9  2  0  0  0  0
  9 10  1  0  0  0  0
 11 10  1  6  0  0  0
 11 12  1  0  0  0  0
  2 12  1  0  0  0  0
 12 13  1  1  0  0  0
 13 14  1  0  0  0  0
 14 15  1  0  0  0  0
 15 16  1  1  0  0  0
 15 17  1  0  0  0  0
 11 17  1  0  0  0  0
 17 18  1  1  0  0  0
 18 19  1  0  0  0  0
 20 19  1  6  0  0  0
 15 20  1  0  0  0  0
 20 21  1  0  0  0  0
 20 22  1  1  0  0  0
M  END
> <InChI>
InChI=1S/C20H30O2/c1-18-9-6-14(21)12-13(18)4-5-15-16(18)7-10-19(2)17(15)8-11-20(19,3)22/h4,15-17,22H,5-12H2,1-3H3/t15-,16+,17+,18+,19+,20+/m1/s1

> <InChIKey>
GINOPLHYEYFURE-HLXURNFRSA-N

> <SMILES>
C[C@]12CCC(=O)CC1=CC[C@@H]3[C@@H]2CC[C@@]4(C)[C@H]3CC[C@]4(C)O

> <Synonyms>


> <PUBCHEM_CID>


> <Molecular_formula>
C20H30O2

> <Major_Isotope_Mass>
302.2245802

> <ALogP>
3.116899999999996

> <Lipinski_Violations>
0

> <Insecticide_Likeness_Violations>
0

> <Post_Em_Herbicide_Likeness_Violations>
0

> <Metabolite_ID>
BTM00001

> <Reaction>
Dehydrogenation of secondary alcohol

> <Reaction_ID>
BTMR0030

> <Enzyme(s)>
EC 1.1.1.1

> <Biosystem>
HUMAN

> <Precursor_ID>


> <Precursor_SMILES>
C[C@]12CC[C@H](O)CC1=CC[C@@H]3[C@@H]2CC[C@@]4(C)[C@H]3CC[C@]4(C)O

> <Precursor_InChI>
InChI=1S/C20H32O2/c1-18-9-6-14(21)12-13(18)4-5-15-16(18)7-10-19(2)17(15)8-11-20(19,3)22/h4,14-17,21-22H,5-12H2,1-3H3/t14-,15+,16-,17-,18-,19-,20-/m0/s1

> <Precursor_InChIKey>
WRWBCPJQPDHXTJ-DTMQFJJTSA-N

> <Precursor_ALogP>


> <Precursor_Major_Isotope_Mass>
304.2402

$$$$
BTM00002
  CDK     09122622092D

 22 25  0  0  1  0  0  0  0  0999 V2000
   -1.6800    1.1900    0.0000 C   0  0  0  0  0  0  0  0  0  0  0  0
   -1.6800   -0.3100    0.0000 C   0  0  2  0  0  0  0  0  0  0  0  0
   -2.9800    0.4400    0.0000 C   0  0  0  0  0  0  0  0  0  0  0  0
   -4.2800   -0.3100    0.0000 C   0  0  0  0  0  0  0  0  0  0  0  0
   -4.2800   -1.8100    0.0000 C   0  0  0  0  0  5  0  0  0  0  0  0
   -5.5789   -2.5602    0.0000 O   0  0  0  0  0  0  0  0  0  0  0  0
   -2.9800   -2.5600    0.0000 C   0  0  0  0  0  0  0  0  0  0  0  0
   -1.6800   -1.8100    0.0000 C   0  0  0  0  0  0  0  0  0  0  0  0
   -0.3800   -2.5600    0.0000 C   0  0  0  0  0  0  0  0  0  0  0  0
    0.9200   -1.8100    0.0000 C   0  0  0  0  0  0  0  0  0  0  0  0
    0.9200   -0.3100    0.0000 C   0  0  2  0  0  0  0  0  0  0  0  0
   -0.3800    0.4400    0.0000 C   0  0  2  0  0  0  0  0  0  0  0  0
   -0.3800    1.9400    0.0000 C   0  0  0  0  0  0  0  0  0  0  0  0
    0.9200    2.6900    0.0000 C   0  0  0  0  0  0  0  0  0  0  0  0
    2.2200    1.9400    0.0000 C   0  0  1  0  0  0  0  0  0  0  0  0
    2.3787    3.4316    0.0000 C   0  0  0  0  0  0  0  0  0  0  0  0
    2.2200    0.4400    0.0000 C   0  0  1  0  0  0  0  0  0  0  0  0
    3.6500   -0.0200    0.0000 C   0  0  0  0  0  0  0  0  0  0  0  0
    4.5300    1.1900    0.0000 C   0  0  0  0  0  0  0  0  0  0  0  0
    3.6500    2.4000    0.0000 C   0  0  1  0  0  0  0  0  0  0  0  0
    4.9495    3.1491    0.0000 C   0  0  0  0  0  0  0  0  0  0  0  0
    3.6962    0.9007    0.0000 O   0  0  0  0  0  0  0  0  0  0  0  0
  2  1  1  1  0  0  0
  2  3  1  0  0  0  0
  3  4  1  0  0  0  0
  4  5  1  0  0  0  0
  5  6  2  0  0  0  0
  5  7  1  0  0  0  0
  7  8  1  0  0  0  0
  2  8  1  0  0  0  0
  8  9  2  0  0  0  0
  9 10  1  0  0  0  0
 11 10  1  6  0  0  0
 11 12  1  0  0  0  0
  2 12  1  0  0  0  0
 12 13  1  1  0  0  0
 13 14  1  0  0  0  0
 14 15  1  0  0  0  0
 15 16  1  1  0  0  0
 15 17  1  0  0  0  0
 11 17  1  0  0  0  0
 17 18  1  1  0  0  0
 18 19  1  0  0  0  0
 20 19  1  6  0  0  0
 15 20  1  0  0  0  0
 20 21  1  0  0  0  0
 20 22  1  1  0  0  0
M  END
> <InChI>
InChI=1S/C20H31O2/c1-18-9-6-14(21)12-13(18)4-5-15-16(18)7-10-19(2)17(15)8-11-20(19,3)22/h4,14-17,22H,5-12H2,1-3H3/t15-,16+,17+,18+,19+,20+/m1/s1

> <InChIKey>
GXBUIRIMBNPABJ-HLXURNFRSA-N

> <SMILES>
C[C@]12CC[CH](=O)CC1=CC[C@@H]3[C@@H]2CC[C@@]4(C)[C@H]3CC[C@]4(C)O

> <Synonyms>


> <PUBCHEM_CID>


> <Molecular_formula>
C20H31O2

> <Major_Isotope_Mass>
303.232405232

> <ALogP>
3.3573999999999966

> <Lipinski_Violations>
0

> <Insecticide_Likeness_Violations>
0

> <Post_Em_Herbicide_Likeness_Violations>
0

> <Metabolite_ID>
BTM00002

> <Reaction>
Dehydrogenation of 3-beta-hydroxy-delta-5-steroid

> <Reaction_ID>
BTMR0363

> <Enzyme(s)>
EC 1.1.1.145

> <Biosystem>
HUMAN

> <Precursor_ID>


> <Precursor_SMILES>
C[C@]12CC[C@H](O)CC1=CC[C@@H]3[C@@H]2CC[C@@]4(C)[C@H]3CC[C@]4(C)O

> <Precursor_InChI>
InChI=1S/C20H32O2/c1-18-9-6-14(21)12-13(18)4-5-15-16(18)7-10-19(2)17(15)8-11-20(19,3)22/h4,14-17,21-22H,5-12H2,1-3H3/t14-,15+,16-,17-,18-,19-,20-/m0/s1

> <Precursor_InChIKey>
WRWBCPJQPDHXTJ-DTMQFJJTSA-N

> <Precursor_ALogP>


> <Precursor_Major_Isotope_Mass>
304.2402

$$$$
BTM00003
  CDK     09122622092D

 23 26  0  0  1  0  0  0  0  0999 V2000
   -1.7600    0.6800    0.0000 C   0  0  0  0  0  0  0  0  0  0  0  0
   -1.7600   -0.8200    0.0000 C   0  0  2  0  0  0  0  0  0  0  0  0
   -3.0600   -0.0700    0.0000 C   0  0  0  0  0  0  0  0  0  0  0  0
   -4.3600   -0.8200    0.0000 C   0  0  0  0  0  0  0  0  0  0  0  0
   -4.3600   -2.3200    0.0000 C   0  0  2  0  0  0  0  0  0  0  0  0
   -5.6589   -3.0702    0.0000 O   0  0  0  0  0  0  0  0  0  0  0  0
   -3.0600   -3.0700    0.0000 C   0  0  0  0  0  0  0  0  0  0  0  0
   -1.7600   -2.3200    0.0000 C   0  0  0  0  0  0  0  0  0  0  0  0
   -0.4600   -3.0700    0.0000 C   0  0  0  0  0  0  0  0  0  0  0  0
    0.8400   -2.3200    0.0000 C   0  0  0  0  0  0  0  0  0  0  0  0
    0.8400   -0.8200    0.0000 C   0  0  2  0  0  0  0  0  0  0  0  0
   -0.4600   -0.0700    0.0000 C   0  0  2  0  0  0  0  0  0  0  0  0
   -0.4600    1.4300    0.0000 C   0  0  0  0  0  0  0  0  0  0  0  0
    0.8400    2.1800    0.0000 C   0  0  0  0  0  0  0  0  0  0  0  0
    2.1400    1.4300    0.0000 C   0  0  1  0  0  0  0  0  0  0  0  0
    2.2972    2.9217    0.0000 C   0  0  0  0  0  0  0  0  0  0  0  0
    2.1400   -0.0700    0.0000 C   0  0  1  0  0  0  0  0  0  0  0  0
    3.5600   -0.5400    0.0000 C   0  0  0  0  0  0  0  0  0  0  0  0
    4.4500    0.6800    0.0000 C   0  0  0  0  0  0  0  0  0  0  0  0
    3.5600    1.8900    0.0000 C   0  0  1  0  0  0  0  0  0  0  0  0
    4.8563    2.6447    0.0000 C   0  0  0  0  0  0  0  0  0  0  0  0
    3.6077    0.3908    0.0000 O   0  0  0  0  0  0  0  0  0  0  0  0
   -1.7589    2.1802    0.0000 O   0  0  0  0  0  0  0  0  0  0  0  0
  2  1  1  1  0  0  0
  2  3  1  0  0  0  0
  3  4  1  0  0  0  0
  4  5  1  0  0  0  0
  5  6  1  1  0  0  0
  5  7  1  0  0  0  0
  7  8  1  0  0  0  0
  2  8  1  0  0  0  0
  8  9  2  0  0  0  0
  9 10  1  0  0  0  0
 11 10  1  6  0  0  0
 11 12  1  0  0  0  0
  2 12  1  0  0  0  0
 12 13  1  1  0  0  0
 13 14  1  0  0  0  0
 14 15  1  0  0  0  0
 15 16  1  1  0  0  0
 15 17  1  0  0  0  0
 11 17  1  0  0  0  0
 17 18  1  1  0  0  0
 18 19  1  0  0  0  0
 20 19  1  6  0  0  0
 15 20  1  0  0  0  0
 20 21  1  0  0  0  0
 20 22  1  1  0  0  0
 23 13  1  0  0  0  0
M  END
> <InChI>
InChI=1S/C20H32O3/c1-18-8-6-13(21)10-12(18)4-5-14-15-7-9-20(3,23)19(15,2)11-16(22)17(14)18/h4,13-17,21-23H,5-11H2,1-3H3/t13-,14-,15-,16?,17+,18-,19-,20-/m0/s1

> <InChIKey>
GKKUXCSIYRLCSI-ONNXRTRASA-N

> <SMILES>
C[C@]12CC[C@H](O)CC1=CC[C@@H]3[C@@H]2C(C[C@@]4(C)[C@H]3CC[C@]4(C)O)O

> <Synonyms>


> <PUBCHEM_CID>


> <Molecular_formula>
C20H32O3

> <Major_Isotope_Mass>
320.23514488399996

> <ALogP>
2.273399999999997

> <Lipinski_Violations>
0

> <Insecticide_Likeness_Violations>
1

> <Post_Em_Herbicide_Likeness_Violations>
1

> <Metabolite_ID>
BTM00003

> <Reaction>
11-beta-Hydroxylation of sterol

> <Reaction_ID>
BTMR0406

> <Enzyme(s)>
EC 1.14.15.4

> <Biosystem>
HUMAN

> <Precursor_ID>


> <Precursor_SMILES>
C[C@]12CC[C@H](O)CC1=CC[C@@H]3[C@@H]2CC[C@@]4(C)[C@H]3CC[C@]4(C)O

> <Precursor_InChI>
InChI=1S/C20H32O2/c1-18-9-6-14(21)12-13(18)4-5-15-16(18)7-10-19(2)17(15)8-11-20(19,3)22/h4,14-17,21-22H,5-12H2,1-3H3/t14-,15+,16-,17-,18-,19-,20-/m0/s1

> <Precursor_InChIKey>
WRWBCPJQPDHXTJ-DTMQFJJTSA-N

> <Precursor_ALogP>


> <Precursor_Major_Isotope_Mass>
304.2402

$$$$
BTM00004
  CDK     09122622092D

 34 38  0  0  1  0  0  0  0  0999 V2000
   -1.8400    0.7800    0.0000 C   0  0  0  0  0  0  0  0  0  0  0  0
   -1.8400   -0.7200    0.0000 C   0  0  2  0  0  0  0  0  0  0  0  0
   -3.1400    0.0300    0.0000 C   0  0  0  0  0  0  0  0  0  0  0  0
   -4.4400   -0.7200    0.0000 C   0  0  0  0  0  0  0  0  0  0  0  0
   -4.4400   -2.2200    0.0000 C   0  0  2  0  0  0  0  0  0  0  0  0
   -5.7389   -2.9702    0.0000 O   0  0  0  0  0  0  0  0  0  0  0  0
   -3.1400   -2.9700    0.0000 C   0  0  0  0  0  0  0  0  0  0  0  0
   -1.8400   -2.2200    0.0000 C   0  0  0  0  0  0  0  0  0  0  0  0
   -0.5400   -2.9700    0.0000 C   0  0  0  0  0  0  0  0  0  0  0  0
    0.7600   -2.2200    0.0000 C   0  0  0  0  0  0  0  0  0  0  0  0
    0.7600   -0.7200    0.0000 C   0  0  2  0  0  0  0  0  0  0  0  0
   -0.5400    0.0300    0.0000 C   0  0  2  0  0  0  0  0  0  0  0  0
   -0.5400    1.5300    0.0000 C   0  0  0  0  0  0  0  0  0  0  0  0
    0.7600    2.2800    0.0000 C   0  0  0  0  0  0  0  0  0  0  0  0
    2.0600    1.5300    0.0000 C   0  0  1  0  0  0  0  0  0  0  0  0
    2.2172    3.0217    0.0000 C   0  0  0  0  0  0  0  0  0  0  0  0
    2.0600    0.0300    0.0000 C   0  0  1  0  0  0  0  0  0  0  0  0
    3.4800   -0.4400    0.0000 C   0  0  0  0  0  0  0  0  0  0  0  0
    4.3700    0.7800    0.0000 C   0  0  0  0  0  0  0  0  0  0  0  0
    3.4800    1.9900    0.0000 C   0  0  1  0  0  0  0  0  0  0  0  0
    4.7763    2.7447    0.0000 C   0  0  0  0  0  0  0  0  0  0  0  0
    3.5277    0.4908    0.0000 O   0  0  0  0  0  0  0  0  0  0  0  0
   -8.3367   -4.4612    0.0000 O   0  0  0  0  0  0  0  0  0  0  0  0
   -8.3309   -2.9612    0.0000 C   0  0  0  0  0  0  0  0  0  0  0  0
   -9.6466   -2.1937    0.0000 C   0  0  0  0  0  0  0  0  0  0  0  0
  -10.9505   -2.9351    0.0000 O   0  0  0  0  0  0  0  0  0  0  0  0
   -9.6334   -0.6879    0.0000 C   0  0  0  0  0  0  0  0  0  0  0  0
  -10.9279    0.0699    0.0000 O   0  0  0  0  0  0  0  0  0  0  0  0
   -8.3406    0.0529    0.0000 C   0  0  0  0  0  0  0  0  0  0  0  0
   -7.0436   -0.7022    0.0000 O   0  0  0  0  0  0  0  0  0  0  0  0
   -7.0381   -2.2204    0.0000 C   0  0  0  0  0  0  0  0  0  0  0  0
   -8.3354    1.5529    0.0000 C   0  0  0  0  0  0  0  0  0  0  0  0
   -9.6319    2.3073    0.0000 O   0  0  0  0  0  0  0  0  0  0  0  0
   -7.0338    2.2984    0.0000 O   0  0  0  0  0  0  0  0  0  0  0  0
  2  1  1  1  0  0  0
  2  3  1  0  0  0  0
  3  4  1  0  0  0  0
  4  5  1  0  0  0  0
  5  6  1  1  0  0  0
  5  7  1  0  0  0  0
  7  8  1  0  0  0  0
  2  8  1  0  0  0  0
  8  9  2  0  0  0  0
  9 10  1  0  0  0  0
 11 10  1  6  0  0  0
 11 12  1  0  0  0  0
  2 12  1  0  0  0  0
 12 13  1  1  0  0  0
 13 14  1  0  0  0  0
 14 15  1  0  0  0  0
 15 16  1  1  0  0  0
 15 17  1  0  0  0  0
 11 17  1  0  0  0  0
 17 18  1  1  0  0  0
 18 19  1  0  0  0  0
 20 19  1  6  0  0  0
 15 20  1  0  0  0  0
 20 21  1  0  0  0  0
 20 22  1  1  0  0  0
 23 24  1  0  0  0  0
 24 25  1  0  0  0  0
 25 26  1  0  0  0  0
 25 27  1  0  0  0  0
 27 28  1  0  0  0  0
 27 29  1  0  0  0  0
 29 30  1  0  0  0  0
 30 31  1  0  0  0  0
 24 31  1  0  0  0  0
 31  6  1  0  0  0  0
 29 32  1  0  0  0  0
 32 33  1  0  0  0  0
 32 34  2  0  0  0  0
M  END
> <InChI>
InChI=1S/C26H40O8/c1-24-9-6-14(33-23-20(29)18(27)19(28)21(34-23)22(30)31)12-13(24)4-5-15-16(24)7-10-25(2)17(15)8-11-26(25,3)32/h4,14-21,23,27-29,32H,5-12H2,1-3H3,(H,30,31)/t14-,15+,16-,17-,18?,19?,20?,21?,23?,24-,25-,26-/m0/s1

> <InChIKey>
BPODZJLYCXFKEB-RIOXENBBSA-N

> <SMILES>
C[C@]12CC[C@H](OC3OC(C(C(C3O)O)O)C(O)=O)CC1=CC[C@@H]4[C@@H]2CC[C@@]5(C)[C@H]4CC[C@]5(C)O

> <Synonyms>


> <PUBCHEM_CID>


> <Molecular_formula>
C26H40O8

> <Major_Isotope_Mass>
480.27231824

> <ALogP>
1.9047999999999952

> <Lipinski_Violations>
0

> <Insecticide_Likeness_Violations>
1

> <Post_Em_Herbicide_Likeness_Violations>
1

> <Metabolite_ID>
BTM00004

> <Reaction>
3-OH-Glucuronidation of sterol

> <Reaction_ID>
BTMR0157

> <Enzyme(s)>
EC 2.4.1.17

> <Biosystem>
HUMAN

> <Precursor_ID>


> <Precursor_SMILES>
C[C@]12CC[C@H](O)CC1=CC[C@@H]3[C@@H]2CC[C@@]4(C)[C@H]3CC[C@]4(C)O

> <Precursor_InChI>
InChI=1S/C20H32O2/c1-18-9-6-14(21)12-13(18)4-5-15-16(18)7-10-19(2)17(15)8-11-20(19,3)22/h4,14-17,21-22H,5-12H2,1-3H3/t14-,15+,16-,17-,18-,19-,20-/m0/s1

> <Precursor_InChIKey>
WRWBCPJQPDHXTJ-DTMQFJJTSA-N

> <Precursor_ALogP>


> <Precursor_Major_Isotope_Mass>
304.2402

$$$$
BTM00005
  CDK     09122622092D

 34 38  0  0  1  0  0  0  0  0999 V2000
   -1.6442    0.3418    0.0000 C   0  0  0  0  0  0  0  0  0  0  0  0
   -1.6442   -1.1582    0.0000 C   0  0  2  0  0  0  0  0  0  0  0  0
   -2.9442   -0.4082    0.0000 C   0  0  0  0  0  0  0  0  0  0  0  0
   -4.2442   -1.1582    0.0000 C   0  0  0  0  0  0  0  0  0  0  0  0
   -4.2442   -2.6582    0.0000 C   0  0  2  0  0  0  0  0  0  0  0  0
   -5.5431   -3.4084    0.0000 O   0  0  0  0  0  0  0  0  0  0  0  0
   -2.9442   -3.4082    0.0000 C   0  0  0  0  0  0  0  0  0  0  0  0
   -1.6442   -2.6582    0.0000 C   0  0  0  0  0  0  0  0  0  0  0  0
   -0.3442   -3.4082    0.0000 C   0  0  0  0  0  0  0  0  0  0  0  0
    0.9558   -2.6582    0.0000 C   0  0  0  0  0  0  0  0  0  0  0  0
    0.9558   -1.1582    0.0000 C   0  0  2  0  0  0  0  0  0  0  0  0
   -0.3442   -0.4082    0.0000 C   0  0  2  0  0  0  0  0  0  0  0  0
   -0.3442    1.0918    0.0000 C   0  0  0  0  0  0  0  0  0  0  0  0
    0.9558    1.8418    0.0000 C   0  0  0  0  0  0  0  0  0  0  0  0
    2.2558    1.0918    0.0000 C   0  0  1  0  0  0  0  0  0  0  0  0
    2.4130    2.5835    0.0000 C   0  0  0  0  0  0  0  0  0  0  0  0
    2.2558   -0.4082    0.0000 C   0  0  1  0  0  0  0  0  0  0  0  0
    3.6758   -0.8782    0.0000 C   0  0  0  0  0  0  0  0  0  0  0  0
    4.5658    0.3418    0.0000 C   0  0  0  0  0  0  0  0  0  0  0  0
    3.6758    1.5518    0.0000 C   0  0  1  0  0  0  0  0  0  0  0  0
    4.9722    2.3065    0.0000 C   0  0  0  0  0  0  0  0  0  0  0  0
    2.8680    3.3595    0.0000 O   0  0  0  0  0  0  0  0  0  0  0  0
    1.6535    6.0975    0.0000 O   0  0  0  0  0  0  0  0  0  0  0  0
    3.1448    5.9367    0.0000 C   0  0  0  0  0  0  0  0  0  0  0  0
    4.0442    7.1660    0.0000 C   0  0  0  0  0  0  0  0  0  0  0  0
    3.4415    8.5396    0.0000 O   0  0  0  0  0  0  0  0  0  0  0  0
    5.5406    6.9973    0.0000 C   0  0  0  0  0  0  0  0  0  0  0  0
    6.4281    8.2066    0.0000 O   0  0  0  0  0  0  0  0  0  0  0  0
    6.1438    5.6349    0.0000 C   0  0  0  0  0  0  0  0  0  0  0  0
    5.2587    4.4228    0.0000 O   0  0  0  0  0  0  0  0  0  0  0  0
    3.7480    4.5742    0.0000 C   0  0  0  0  0  0  0  0  0  0  0  0
    7.6352    5.4747    0.0000 C   0  0  0  0  0  0  0  0  0  0  0  0
    8.5196    6.6863    0.0000 O   0  0  0  0  0  0  0  0  0  0  0  0
    8.2422    4.1030    0.0000 O   0  0  0  0  0  0  0  0  0  0  0  0
  2  1  1  1  0  0  0
  2  3  1  0  0  0  0
  3  4  1  0  0  0  0
  4  5  1  0  0  0  0
  5  6  1  1  0  0  0
  5  7  1  0  0  0  0
  7  8  1  0  0  0  0
  2  8  1  0  0  0  0
  8  9  2  0  0  0  0
  9 10  1  0  0  0  0
 11 10  1  6  0  0  0
 11 12  1  0  0  0  0
  2 12  1  0  0  0  0
 12 13  1  1  0  0  0
 13 14  1  0  0  0  0
 14 15  1  0  0  0  0
 15 16  1  1  0  0  0
 15 17  1  0  0  0  0
 11 17  1  0  0  0  0
 17 18  1  1  0  0  0
 18 19  1  0  0  0  0
 19 20  1  0  0  0  0
 15 20  1  0  0  0  0
 20 21  1  6  0  0  0
 20 22  1  1  0  0  0
 23 24  1  0  0  0  0
 24 25  1  0  0  0  0
 25 26  1  0  0  0  0
 25 27  1  0  0  0  0
 27 28  1  0  0  0  0
 27 29  1  0  0  0  0
 29 30  1  0  0  0  0
 30 31  1  0  0  0  0
 24 31  1  0  0  0  0
 31 22  1  0  0  0  0
 29 32  1  0  0  0  0
 32 33  1  0  0  0  0
 32 34  2  0  0  0  0
M  END
> <InChI>
InChI=1S/C26H40O8/c1-24-9-6-14(27)12-13(24)4-5-15-16(24)7-10-25(2)17(15)8-11-26(25,3)34-23-20(30)18(28)19(29)21(33-23)22(31)32/h4,14-21,23,27-30H,5-12H2,1-3H3,(H,31,32)/t14-,15+,16-,17-,18?,19?,20?,21?,23?,24-,25-,26-/m0/s1

> <InChIKey>
FFMPECBUMXZIJV-RIOXENBBSA-N

> <SMILES>
C[C@]12CC[C@H](O)CC1=CC[C@@H]3[C@@H]2CC[C@@]4(C)[C@H]3CC[C@]4(C)OC5OC(C(C(C5O)O)O)C(O)=O

> <Synonyms>


> <PUBCHEM_CID>


> <Molecular_formula>
C26H40O8

> <Major_Isotope_Mass>
480.27231824

> <ALogP>
1.9047999999999952

> <Lipinski_Violations>
0

> <Insecticide_Likeness_Violations>
1

> <Post_Em_Herbicide_Likeness_Violations>
1

> <Metabolite_ID>
BTM00005

> <Reaction>
17-OH-Glucuronidation of sterol

> <Reaction_ID>
BTMR0163

> <Enzyme(s)>
EC 2.4.1.17

> <Biosystem>
HUMAN

> <Precursor_ID>


> <Precursor_SMILES>
C[C@]12CC[C@H](O)CC1=CC[C@@H]3[C@@H]2CC[C@@]4(C)[C@H]3CC[C@]4(C)O

> <Precursor_InChI>
InChI=1S/C20H32O2/c1-18-9-6-14(21)12-13(18)4-5-15-16(18)7-10-19(2)17(15)8-11-20(19,3)22/h4,14-17,21-22H,5-12H2,1-3H3/t14-,15+,16-,17-,18-,19-,20-/m0/s1

> <Precursor_InChIKey>
WRWBCPJQPDHXTJ-DTMQFJJTSA-N

> <Precursor_ALogP>


> <Precursor_Major_Isotope_Mass>
304.2402

$$$$
BTM00006
  CDK     09122622092D

 26 29  0  0  1  0  0  0  0  0999 V2000
   -1.8400    0.7800    0.0000 C   0  0  0  0  0  0  0  0  0  0  0  0
   -1.8400   -0.7200    0.0000 C   0  0  2  0  0  0  0  0  0  0  0  0
   -3.1400    0.0300    0.0000 C   0  0  0  0  0  0  0  0  0  0  0  0
   -4.4400   -0.7200    0.0000 C   0  0  0  0  0  0  0  0  0  0  0  0
   -4.4400   -2.2200    0.0000 C   0  0  2  0  0  0  0  0  0  0  0  0
   -5.7389   -2.9702    0.0000 O   0  0  0  0  0  0  0  0  0  0  0  0
   -3.1400   -2.9700    0.0000 C   0  0  0  0  0  0  0  0  0  0  0  0
   -1.8400   -2.2200    0.0000 C   0  0  0  0  0  0  0  0  0  0  0  0
   -0.5400   -2.9700    0.0000 C   0  0  0  0  0  0  0  0  0  0  0  0
    0.7600   -2.2200    0.0000 C   0  0  0  0  0  0  0  0  0  0  0  0
    0.7600   -0.7200    0.0000 C   0  0  2  0  0  0  0  0  0  0  0  0
   -0.5400    0.0300    0.0000 C   0  0  2  0  0  0  0  0  0  0  0  0
   -0.5400    1.5300    0.0000 C   0  0  0  0  0  0  0  0  0  0  0  0
    0.7600    2.2800    0.0000 C   0  0  0  0  0  0  0  0  0  0  0  0
    2.0600    1.5300    0.0000 C   0  0  1  0  0  0  0  0  0  0  0  0
    2.2172    3.0217    0.0000 C   0  0  0  0  0  0  0  0  0  0  0  0
    2.0600    0.0300    0.0000 C   0  0  1  0  0  0  0  0  0  0  0  0
    3.4800   -0.4400    0.0000 C   0  0  0  0  0  0  0  0  0  0  0  0
    4.3700    0.7800    0.0000 C   0  0  0  0  0  0  0  0  0  0  0  0
    3.4800    1.9900    0.0000 C   0  0  1  0  0  0  0  0  0  0  0  0
    4.7763    2.7447    0.0000 C   0  0  0  0  0  0  0  0  0  0  0  0
    3.5277    0.4908    0.0000 O   0  0  0  0  0  0  0  0  0  0  0  0
   -6.2883   -0.9213    0.0000 O   0  0  0  0  0  0  0  0  0  0  0  0
   -7.0381   -2.2204    0.0000 S   0  0  0  0  0  0  0  0  0  0  0  0
   -8.3372   -1.4706    0.0000 O   0  0  0  0  0  0  0  0  0  0  0  0
   -7.7879   -3.5196    0.0000 O   0  0  0  0  0  0  0  0  0  0  0  0
  2  1  1  1  0  0  0
  2  3  1  0  0  0  0
  3  4  1  0  0  0  0
  4  5  1  0  0  0  0
  5  6  1  1  0  0  0
  5  7  1  0  0  0  0
  7  8  1  0  0  0  0
  2  8  1  0  0  0  0
  8  9  2  0  0  0  0
  9 10  1  0  0  0  0
 11 10  1  6  0  0  0
 11 12  1  0  0  0  0
  2 12  1  0  0  0  0
 12 13  1  1  0  0  0
 13 14  1  0  0  0  0
 14 15  1  0  0  0  0
 15 16  1  1  0  0  0
 15 17  1  0  0  0  0
 11 17  1  0  0  0  0
 17 18  1  1  0  0  0
 18 19  1  0  0  0  0
 20 19  1  6  0  0  0
 15 20  1  0  0  0  0
 20 21  1  0  0  0  0
 20 22  1  1  0  0  0
 23 24  1  0  0  0  0
 24 25  2  0  0  0  0
 24 26  2  0  0  0  0
 24  6  1  0  0  0  0
M  END
> <InChI>
InChI=1S/C20H32O5S/c1-18-9-6-14(25-26(22,23)24)12-13(18)4-5-15-16(18)7-10-19(2)17(15)8-11-20(19,3)21/h4,14-17,21H,5-12H2,1-3H3,(H,22,23,24)/t14-,15+,16-,17-,18-,19-,20-/m0/s1

> <InChIKey>
QZZQYTIHYWVDGO-DTMQFJJTSA-N

> <SMILES>
C[C@]12CC[C@H](OS(O)(=O)=O)CC1=CC[C@@H]3[C@@H]2CC[C@@]4(C)[C@H]3CC[C@]4(C)O

> <Synonyms>


> <PUBCHEM_CID>


> <Molecular_formula>
C20H32O5S

> <Major_Isotope_Mass>
384.197045124

> <ALogP>
2.863499999999997

> <Lipinski_Violations>
0

> <Insecticide_Likeness_Violations>
0

> <Post_Em_Herbicide_Likeness_Violations>
0

> <Metabolite_ID>
BTM00006

> <Reaction>
3-OH-Sulfation of sterol

> <Reaction_ID>
BTMR0503

> <Enzyme(s)>
EC 2.8.2.2

> <Biosystem>
HUMAN

> <Precursor_ID>


> <Precursor_SMILES>
C[C@]12CC[C@H](O)CC1=CC[C@@H]3[C@@H]2CC[C@@]4(C)[C@H]3CC[C@]4(C)O

> <Precursor_InChI>
InChI=1S/C20H32O2/c1-18-9-6-14(21)12-13(18)4-5-15-16(18)7-10-19(2)17(15)8-11-20(19,3)22/h4,14-17,21-22H,5-12H2,1-3H3/t14-,15+,16-,17-,18-,19-,20-/m0/s1

> <Precursor_InChIKey>
WRWBCPJQPDHXTJ-DTMQFJJTSA-N

> <Precursor_ALogP>


> <Precursor_Major_Isotope_Mass>
304.2402

$$$$
BTM00007
  CDK     09122622092D

 23 26  0  0  1  0  0  0  0  0999 V2000
   -1.6800    1.1900    0.0000 C   0  0  0  0  0  0  0  0  0  0  0  0
   -1.6800   -0.3100    0.0000 C   0  0  2  0  0  0  0  0  0  0  0  0
   -2.9800    0.4400    0.0000 C   0  0  0  0  0  0  0  0  0  0  0  0
   -4.2800   -0.3100    0.0000 C   0  0  0  0  0  0  0  0  0  0  0  0
   -4.2800   -1.8100    0.0000 C   0  0  2  0  0  0  0  0  0  0  0  0
   -5.5789   -2.5602    0.0000 O   0  0  0  0  0  0  0  0  0  0  0  0
   -2.9800   -2.5600    0.0000 C   0  0  0  0  0  0  0  0  0  0  0  0
   -1.6800   -1.8100    0.0000 C   0  0  0  0  0  0  0  0  0  0  0  0
   -0.3800   -2.5600    0.0000 C   0  0  0  0  0  0  0  0  0  0  0  0
    0.9200   -1.8100    0.0000 C   0  0  0  0  0  0  0  0  0  0  0  0
    0.9200   -0.3100    0.0000 C   0  0  2  0  0  0  0  0  0  0  0  0
   -0.3800    0.4400    0.0000 C   0  0  2  0  0  0  0  0  0  0  0  0
   -0.3800    1.9400    0.0000 C   0  0  0  0  0  0  0  0  0  0  0  0
    0.9200    2.6900    0.0000 C   0  0  0  0  0  0  0  0  0  0  0  0
    2.2200    1.9400    0.0000 C   0  0  1  0  0  0  0  0  0  0  0  0
    2.3787    3.4316    0.0000 C   0  0  0  0  0  0  0  0  0  0  0  0
    2.2200    0.4400    0.0000 C   0  0  1  0  0  0  0  0  0  0  0  0
    3.6500   -0.0200    0.0000 C   0  0  0  0  0  0  0  0  0  0  0  0
    4.5300    1.1900    0.0000 C   0  0  0  0  0  0  0  0  0  0  0  0
    3.6500    2.4000    0.0000 C   0  0  1  0  0  0  0  0  0  0  0  0
    4.9495    3.1491    0.0000 C   0  0  0  0  0  0  0  0  0  0  0  0
    3.6962    0.9007    0.0000 O   0  0  0  0  0  0  0  0  0  0  0  0
    6.0300    1.1900    0.0000 O   0  0  0  0  0  0  0  0  0  0  0  0
  2  1  1  1  0  0  0
  2  3  1  0  0  0  0
  3  4  1  0  0  0  0
  4  5  1  0  0  0  0
  5  6  1  1  0  0  0
  5  7  1  0  0  0  0
  7  8  1  0  0  0  0
  2  8  1  0  0  0  0
  8  9  2  0  0  0  0
  9 10  1  0  0  0  0
 11 10  1  6  0  0  0
 11 12  1  0  0  0  0
  2 12  1  0  0  0  0
 12 13  1  1  0  0  0
 13 14  1  0  0  0  0
 14 15  1  0  0  0  0
 15 16  1  1  0  0  0
 15 17  1  0  0  0  0
 11 17  1  0  0  0  0
 17 18  1  1  0  0  0
 18 19  1  0  0  0  0
 19 20  1  0  0  0  0
 15 20  1  0  0  0  0
 20 21  1  0  0  0  0
 20 22  1  1  0  0  0
 23 19  1  0  0  0  0
M  END
> <InChI>
InChI=1S/C20H32O3/c1-18-8-6-13(21)10-12(18)4-5-14-15(18)7-9-19(2)16(14)11-17(22)20(19,3)23/h4,13-17,21-23H,5-11H2,1-3H3/t13-,14+,15-,16-,17?,18-,19-,20-/m0/s1

> <InChIKey>
SVIQULYKTZBWGQ-OIUATELPSA-N

> <SMILES>
C[C@]12CC[C@H](O)CC1=CC[C@@H]3[C@@H]2CC[C@@]4(C)[C@H]3CC([C@]4(C)O)O

> <Synonyms>


> <PUBCHEM_CID>


> <Molecular_formula>
C20H32O3

> <Major_Isotope_Mass>
320.23514488399996

> <ALogP>
2.475899999999996

> <Lipinski_Violations>
0

> <Insecticide_Likeness_Violations>
1

> <Post_Em_Herbicide_Likeness_Violations>
1

> <Metabolite_ID>
BTM00007

> <Reaction>
16-Hydroxylation of sterol

> <Reaction_ID>
BTMR0407

> <Enzyme(s)>
CYP1A2
CYP2A6
CYP2B6
CYP2C8
CYP2C9
CYP2C19
CYP2D6
CYP2E1
CYP3A4

> <Biosystem>
HUMAN

> <Precursor_ID>


> <Precursor_SMILES>
C[C@]12CC[C@H](O)CC1=CC[C@@H]3[C@@H]2CC[C@@]4(C)[C@H]3CC[C@]4(C)O

> <Precursor_InChI>
InChI=1S/C20H32O2/c1-18-9-6-14(21)12-13(18)4-5-15-16(18)7-10-19(2)17(15)8-11-20(19,3)22/h4,14-17,21-22H,5-12H2,1-3H3/t14-,15+,16-,17-,18-,19-,20-/m0/s1

> <Precursor_InChIKey>
WRWBCPJQPDHXTJ-DTMQFJJTSA-N

> <Precursor_ALogP>


> <Precursor_Major_Isotope_Mass>
304.2402

$$$$
BTM00008
  CDK     09122622092D

 23 26  0  0  1  0  0  0  0  0999 V2000
   -1.6800    1.1900    0.0000 C   0  0  0  0  0  0  0  0  0  0  0  0
   -1.6800   -0.3100    0.0000 C   0  0  2  0  0  0  0  0  0  0  0  0
   -2.9800    0.4400    0.0000 C   0  0  0  0  0  0  0  0  0  0  0  0
   -4.2800   -0.3100    0.0000 C   0  0  0  0  0  0  0  0  0  0  0  0
   -4.2800   -1.8100    0.0000 C   0  0  2  0  0  0  0  0  0  0  0  0
   -5.5789   -2.5602    0.0000 O   0  0  0  0  0  0  0  0  0  0  0  0
   -2.9800   -2.5600    0.0000 C   0  0  0  0  0  0  0  0  0  0  0  0
   -1.6800   -1.8100    0.0000 C   0  0  0  0  0  0  0  0  0  0  0  0
   -0.3800   -2.5600    0.0000 C   0  0  0  0  0  0  0  0  0  0  0  0
    0.9200   -1.8100    0.0000 C   0  0  0  0  0  0  0  0  0  0  0  0
    0.9200   -0.3100    0.0000 C   0  0  2  0  0  0  0  0  0  0  0  0
   -0.3800    0.4400    0.0000 C   0  0  2  0  0  0  0  0  0  0  0  0
   -0.3800    1.9400    0.0000 C   0  0  0  0  0  0  0  0  0  0  0  0
    0.9200    2.6900    0.0000 C   0  0  0  0  0  0  0  0  0  0  0  0
    2.2200    1.9400    0.0000 C   0  0  1  0  0  0  0  0  0  0  0  0
    2.3787    3.4316    0.0000 C   0  0  0  0  0  0  0  0  0  0  0  0
    2.2200    0.4400    0.0000 C   0  0  1  0  0  0  0  0  0  0  0  0
    3.6500   -0.0200    0.0000 C   0  0  0  0  0  0  0  0  0  0  0  0
    4.5300    1.1900    0.0000 C   0  0  0  0  0  0  0  0  0  0  0  0
    3.6500    2.4000    0.0000 C   0  0  1  0  0  0  0  0  0  0  0  0
    4.9495    3.1491    0.0000 C   0  0  0  0  0  0  0  0  0  0  0  0
    3.6962    0.9007    0.0000 O   0  0  0  0  0  0  0  0  0  0  0  0
   -5.5789    0.4402    0.0000 O   0  0  0  0  0  0  0  0  0  0  0  0
  2  1  1  1  0  0  0
  2  3  1  0  0  0  0
  3  4  1  0  0  0  0
  4  5  1  0  0  0  0
  5  6  1  1  0  0  0
  5  7  1  0  0  0  0
  7  8  1  0  0  0  0
  2  8  1  0  0  0  0
  8  9  2  0  0  0  0
  9 10  1  0  0  0  0
 11 10  1  6  0  0  0
 11 12  1  0  0  0  0
  2 12  1  0  0  0  0
 12 13  1  1  0  0  0
 13 14  1  0  0  0  0
 14 15  1  0  0  0  0
 15 16  1  1  0  0  0
 15 17  1  0  0  0  0
 11 17  1  0  0  0  0
 17 18  1  1  0  0  0
 18 19  1  0  0  0  0
 20 19  1  6  0  0  0
 15 20  1  0  0  0  0
 20 21  1  0  0  0  0
 20 22  1  1  0  0  0
 23  4  1  0  0  0  0
M  END
> <InChI>
InChI=1S/C20H32O3/c1-18-11-17(22)16(21)10-12(18)4-5-13-14(18)6-8-19(2)15(13)7-9-20(19,3)23/h4,13-17,21-23H,5-11H2,1-3H3/t13-,14+,15+,16-,17?,18+,19+,20+/m1/s1

> <InChIKey>
IDRLVDGCLJBJLE-GKUDYQGYSA-N

> <SMILES>
C[C@]12CC([C@H](O)CC1=CC[C@@H]3[C@@H]2CC[C@@]4(C)[C@H]3CC[C@]4(C)O)O

> <Synonyms>


> <PUBCHEM_CID>


> <Molecular_formula>
C20H32O3

> <Major_Isotope_Mass>
320.23514488399996

> <ALogP>
2.475899999999996

> <Lipinski_Violations>
0

> <Insecticide_Likeness_Violations>
1

> <Post_Em_Herbicide_Likeness_Violations>
1

> <Metabolite_ID>
BTM00008

> <Reaction>
2-Hydroxylation of sterol

> <Reaction_ID>
BTMR0398

> <Enzyme(s)>
CYP1A2
CYP2C19
CYP3A4

> <Biosystem>
HUMAN

> <Precursor_ID>


> <Precursor_SMILES>
C[C@]12CC[C@H](O)CC1=CC[C@@H]3[C@@H]2CC[C@@]4(C)[C@H]3CC[C@]4(C)O

> <Precursor_InChI>
InChI=1S/C20H32O2/c1-18-9-6-14(21)12-13(18)4-5-15-16(18)7-10-19(2)17(15)8-11-20(19,3)22/h4,14-17,21-22H,5-12H2,1-3H3/t14-,15+,16-,17-,18-,19-,20-/m0/s1

> <Precursor_InChIKey>
WRWBCPJQPDHXTJ-DTMQFJJTSA-N

> <Precursor_ALogP>


> <Precursor_Major_Isotope_Mass>
304.2402

$$$$
BTM00009
  CDK     09122622092D

 23 26  0  0  1  0  0  0  0  0999 V2000
   -1.6800    1.1900    0.0000 C   0  0  0  0  0  0  0  0  0  0  0  0
   -1.6800   -0.3100    0.0000 C   0  0  2  0  0  0  0  0  0  0  0  0
   -2.9800    0.4400    0.0000 C   0  0  0  0  0  0  0  0  0  0  0  0
   -4.2800   -0.3100    0.0000 C   0  0  0  0  0  0  0  0  0  0  0  0
   -4.2800   -1.8100    0.0000 C   0  0  2  0  0  0  0  0  0  0  0  0
   -5.5789   -2.5602    0.0000 O   0  0  0  0  0  0  0  0  0  0  0  0
   -2.9800   -2.5600    0.0000 C   0  0  0  0  0  0  0  0  0  0  0  0
   -1.6800   -1.8100    0.0000 C   0  0  0  0  0  0  0  0  0  0  0  0
   -0.3800   -2.5600    0.0000 C   0  0  0  0  0  0  0  0  0  0  0  0
    0.9200   -1.8100    0.0000 C   0  0  0  0  0  0  0  0  0  0  0  0
    0.9200   -0.3100    0.0000 C   0  0  2  0  0  0  0  0  0  0  0  0
   -0.3800    0.4400    0.0000 C   0  0  2  0  0  0  0  0  0  0  0  0
   -0.3800    1.9400    0.0000 C   0  0  0  0  0  0  0  0  0  0  0  0
    0.9200    2.6900    0.0000 C   0  0  0  0  0  0  0  0  0  0  0  0
    2.2200    1.9400    0.0000 C   0  0  1  0  0  0  0  0  0  0  0  0
    2.3787    3.4316    0.0000 C   0  0  0  0  0  0  0  0  0  0  0  0
    2.2200    0.4400    0.0000 C   0  0  1  0  0  0  0  0  0  0  0  0
    3.6500   -0.0200    0.0000 C   0  0  0  0  0  0  0  0  0  0  0  0
    4.5300    1.1900    0.0000 C   0  0  0  0  0  0  0  0  0  0  0  0
    3.6500    2.4000    0.0000 C   0  0  1  0  0  0  0  0  0  0  0  0
    4.9495    3.1491    0.0000 C   0  0  0  0  0  0  0  0  0  0  0  0
    3.6962    0.9007    0.0000 O   0  0  0  0  0  0  0  0  0  0  0  0
   -2.9800   -4.0600    0.0000 O   0  0  0  0  0  0  0  0  0  0  0  0
  2  1  1  1  0  0  0
  2  3  1  0  0  0  0
  3  4  1  0  0  0  0
  4  5  1  0  0  0  0
  5  6  1  1  0  0  0
  5  7  1  0  0  0  0
  7  8  1  0  0  0  0
  2  8  1  0  0  0  0
  8  9  2  0  0  0  0
  9 10  1  0  0  0  0
 11 10  1  6  0  0  0
 11 12  1  0  0  0  0
  2 12  1  0  0  0  0
 12 13  1  1  0  0  0
 13 14  1  0  0  0  0
 14 15  1  0  0  0  0
 15 16  1  1  0  0  0
 15 17  1  0  0  0  0
 11 17  1  0  0  0  0
 17 18  1  1  0  0  0
 18 19  1  0  0  0  0
 20 19  1  6  0  0  0
 15 20  1  0  0  0  0
 20 21  1  0  0  0  0
 20 22  1  1  0  0  0
 23  7  1  0  0  0  0
M  END
> <InChI>
InChI=1S/C20H32O3/c1-18-9-8-16(21)17(22)15(18)5-4-12-13(18)6-10-19(2)14(12)7-11-20(19,3)23/h5,12-14,16-17,21-23H,4,6-11H2,1-3H3/t12-,13+,14+,16+,17?,18-,19+,20+/m1/s1

> <InChIKey>
RIOUCGDLNQXENE-FUGOGPMASA-N

> <SMILES>
C[C@]12CC[C@H](O)C(C1=CC[C@@H]3[C@@H]2CC[C@@]4(C)[C@H]3CC[C@]4(C)O)O

> <Synonyms>


> <PUBCHEM_CID>


> <Molecular_formula>
C20H32O3

> <Major_Isotope_Mass>
320.23514488399996

> <ALogP>
2.610899999999996

> <Lipinski_Violations>
0

> <Insecticide_Likeness_Violations>
1

> <Post_Em_Herbicide_Likeness_Violations>
1

> <Metabolite_ID>
BTM00009

> <Reaction>
4-Hydroxylation of sterol

> <Reaction_ID>
BTMR0400

> <Enzyme(s)>
CYP1A2
CYP3A4

> <Biosystem>
HUMAN

> <Precursor_ID>


> <Precursor_SMILES>
C[C@]12CC[C@H](O)CC1=CC[C@@H]3[C@@H]2CC[C@@]4(C)[C@H]3CC[C@]4(C)O

> <Precursor_InChI>
InChI=1S/C20H32O2/c1-18-9-6-14(21)12-13(18)4-5-15-16(18)7-10-19(2)17(15)8-11-20(19,3)22/h4,14-17,21-22H,5-12H2,1-3H3/t14-,15+,16-,17-,18-,19-,20-/m0/s1

> <Precursor_InChIKey>
WRWBCPJQPDHXTJ-DTMQFJJTSA-N

> <Precursor_ALogP>


> <Precursor_Major_Isotope_Mass>
304.2402

$$$$
BTM00010
  CDK     09122622092D

 23 26  0  0  1  0  0  0  0  0999 V2000
   -1.8400    0.7800    0.0000 C   0  0  0  0  0  0  0  0  0  0  0  0
   -1.8400   -0.7200    0.0000 C   0  0  2  0  0  0  0  0  0  0  0  0
   -3.1400    0.0300    0.0000 C   0  0  0  0  0  0  0  0  0  0  0  0
   -4.4400   -0.7200    0.0000 C   0  0  0  0  0  0  0  0  0  0  0  0
   -4.4400   -2.2200    0.0000 C   0  0  2  0  0  0  0  0  0  0  0  0
   -5.7389   -2.9702    0.0000 O   0  0  0  0  0  0  0  0  0  0  0  0
   -3.1400   -2.9700    0.0000 C   0  0  0  0  0  0  0  0  0  0  0  0
   -1.8400   -2.2200    0.0000 C   0  0  0  0  0  0  0  0  0  0  0  0
   -0.5400   -2.9700    0.0000 C   0  0  0  0  0  0  0  0  0  0  0  0
    0.7600   -2.2200    0.0000 C   0  0  0  0  0  0  0  0  0  0  0  0
    0.7600   -0.7200    0.0000 C   0  0  2  0  0  0  0  0  0  0  0  0
   -0.5400    0.0300    0.0000 C   0  0  2  0  0  0  0  0  0  0  0  0
   -0.5400    1.5300    0.0000 C   0  0  0  0  0  0  0  0  0  0  0  0
    0.7600    2.2800    0.0000 C   0  0  0  0  0  0  0  0  0  0  0  0
    2.0600    1.5300    0.0000 C   0  0  1  0  0  0  0  0  0  0  0  0
    2.2172    3.0217    0.0000 C   0  0  0  0  0  0  0  0  0  0  0  0
    2.0600    0.0300    0.0000 C   0  0  1  0  0  0  0  0  0  0  0  0
    3.4800   -0.4400    0.0000 C   0  0  0  0  0  0  0  0  0  0  0  0
    4.3700    0.7800    0.0000 C   0  0  0  0  0  0  0  0  0  0  0  0
    3.4800    1.9900    0.0000 C   0  0  1  0  0  0  0  0  0  0  0  0
    4.7763    2.7447    0.0000 C   0  0  0  0  0  0  0  0  0  0  0  0
    3.5277    0.4908    0.0000 O   0  0  0  0  0  0  0  0  0  0  0  0
   -3.1390    1.5300    0.0000 O   0  0  0  0  0  0  0  0  0  0  0  0
  2  1  1  1  0  0  0
  2  3  1  0  0  0  0
  3  4  1  0  0  0  0
  4  5  1  0  0  0  0
  5  6  1  1  0  0  0
  5  7  1  0  0  0  0
  7  8  1  0  0  0  0
  2  8  1  0  0  0  0
  8  9  2  0  0  0  0
  9 10  1  0  0  0  0
 11 10  1  6  0  0  0
 11 12  1  0  0  0  0
  2 12  1  0  0  0  0
 12 13  1  1  0  0  0
 13 14  1  0  0  0  0
 14 15  1  0  0  0  0
 15 16  1  1  0  0  0
 15 17  1  0  0  0  0
 11 17  1  0  0  0  0
 17 18  1  1  0  0  0
 18 19  1  0  0  0  0
 20 19  1  6  0  0  0
 15 20  1  0  0  0  0
 20 21  1  0  0  0  0
 20 22  1  1  0  0  0
 23  1  1  0  0  0  0
M  END
> <InChI>
InChI=1S/C20H32O3/c1-18-8-6-17-15(16(18)7-9-19(18,2)23)4-3-13-11-14(22)5-10-20(13,17)12-21/h3,14-17,21-23H,4-12H2,1-2H3/t14-,15-,16-,17-,18-,19-,20+/m0/s1

> <InChIKey>
UGXZGMZYVUFWSB-NPBKEMFKSA-N

> <SMILES>
C([C@]12CC[C@H](O)CC1=CC[C@@H]3[C@@H]2CC[C@@]4(C)[C@H]3CC[C@]4(C)O)O

> <Synonyms>


> <PUBCHEM_CID>


> <Molecular_formula>
C20H32O3

> <Major_Isotope_Mass>
320.23514488399996

> <ALogP>
2.3521

> <Lipinski_Violations>
0

> <Insecticide_Likeness_Violations>
1

> <Post_Em_Herbicide_Likeness_Violations>
1

> <Metabolite_ID>
BTM00010

> <Reaction>
Hydroxylation of methyl carbon adjacent to aliphatic ring

> <Reaction_ID>
BTMR0054

> <Enzyme(s)>
CYP2B6
CYP2C8
CYP2C9
CYP2C19
CYP2D6
CYP3A4

> <Biosystem>
HUMAN

> <Precursor_ID>


> <Precursor_SMILES>
C[C@]12CC[C@H](O)CC1=CC[C@@H]3[C@@H]2CC[C@@]4(C)[C@H]3CC[C@]4(C)O

> <Precursor_InChI>
InChI=1S/C20H32O2/c1-18-9-6-14(21)12-13(18)4-5-15-16(18)7-10-19(2)17(15)8-11-20(19,3)22/h4,14-17,21-22H,5-12H2,1-3H3/t14-,15+,16-,17-,18-,19-,20-/m0/s1

> <Precursor_InChIKey>
WRWBCPJQPDHXTJ-DTMQFJJTSA-N

> <Precursor_ALogP>


> <Precursor_Major_Isotope_Mass>
304.2402

$$$$
BTM00011
  CDK     09122622092D

 23 26  0  0  1  0  0  0  0  0999 V2000
   -1.8400    0.7800    0.0000 C   0  0  0  0  0  0  0  0  0  0  0  0
   -1.8400   -0.7200    0.0000 C   0  0  2  0  0  0  0  0  0  0  0  0
   -3.1400    0.0300    0.0000 C   0  0  0  0  0  0  0  0  0  0  0  0
   -4.4400   -0.7200    0.0000 C   0  0  0  0  0  0  0  0  0  0  0  0
   -4.4400   -2.2200    0.0000 C   0  0  2  0  0  0  0  0  0  0  0  0
   -5.7389   -2.9702    0.0000 O   0  0  0  0  0  0  0  0  0  0  0  0
   -3.1400   -2.9700    0.0000 C   0  0  0  0  0  0  0  0  0  0  0  0
   -1.8400   -2.2200    0.0000 C   0  0  0  0  0  0  0  0  0  0  0  0
   -0.5400   -2.9700    0.0000 C   0  0  0  0  0  0  0  0  0  0  0  0
    0.7600   -2.2200    0.0000 C   0  0  0  0  0  0  0  0  0  0  0  0
    0.7600   -0.7200    0.0000 C   0  0  2  0  0  0  0  0  0  0  0  0
   -0.5400    0.0300    0.0000 C   0  0  2  0  0  0  0  0  0  0  0  0
   -0.5400    1.5300    0.0000 C   0  0  0  0  0  0  0  0  0  0  0  0
    0.7600    2.2800    0.0000 C   0  0  0  0  0  0  0  0  0  0  0  0
    2.0600    1.5300    0.0000 C   0  0  1  0  0  0  0  0  0  0  0  0
    2.2172    3.0217    0.0000 C   0  0  0  0  0  0  0  0  0  0  0  0
    2.0600    0.0300    0.0000 C   0  0  1  0  0  0  0  0  0  0  0  0
    3.4800   -0.4400    0.0000 C   0  0  0  0  0  0  0  0  0  0  0  0
    4.3700    0.7800    0.0000 C   0  0  0  0  0  0  0  0  0  0  0  0
    3.4800    1.9900    0.0000 C   0  0  1  0  0  0  0  0  0  0  0  0
    4.7763    2.7447    0.0000 C   0  0  0  0  0  0  0  0  0  0  0  0
    3.5277    0.4908    0.0000 O   0  0  0  0  0  0  0  0  0  0  0  0
    6.0781    1.9994    0.0000 O   0  0  0  0  0  0  0  0  0  0  0  0
  2  1  1  1  0  0  0
  2  3  1  0  0  0  0
  3  4  1  0  0  0  0
  4  5  1  0  0  0  0
  5  6  1  1  0  0  0
  5  7  1  0  0  0  0
  7  8  1  0  0  0  0
  2  8  1  0  0  0  0
  8  9  2  0  0  0  0
  9 10  1  0  0  0  0
 11 10  1  6  0  0  0
 11 12  1  0  0  0  0
  2 12  1  0  0  0  0
 12 13  1  1  0  0  0
 13 14  1  0  0  0  0
 14 15  1  0  0  0  0
 15 16  1  1  0  0  0
 15 17  1  0  0  0  0
 11 17  1  0  0  0  0
 17 18  1  1  0  0  0
 18 19  1  0  0  0  0
 20 19  1  6  0  0  0
 15 20  1  0  0  0  0
 20 21  1  0  0  0  0
 20 22  1  1  0  0  0
 23 21  1  0  0  0  0
M  END
> <InChI>
InChI=1S/C20H32O3/c1-18-8-5-14(22)11-13(18)3-4-15-16(18)6-9-19(2)17(15)7-10-20(19,23)12-21/h3,14-17,21-23H,4-12H2,1-2H3/t14-,15+,16-,17-,18-,19-,20+/m0/s1

> <InChIKey>
SHSSCYPJISZJMP-IJMQKCTASA-N

> <SMILES>
C[C@]12CC[C@H](O)CC1=CC[C@@H]3[C@@H]2CC[C@@]4(C)[C@H]3CC[C@]4(CO)O

> <Synonyms>


> <PUBCHEM_CID>


> <Molecular_formula>
C20H32O3

> <Major_Isotope_Mass>
320.23514488399996

> <ALogP>
2.5545999999999998

> <Lipinski_Violations>
0

> <Insecticide_Likeness_Violations>
1

> <Post_Em_Herbicide_Likeness_Violations>
1

> <Metabolite_ID>
BTM00011

> <Reaction>
Hydroxylation of methyl carbon adjacent to aliphatic ring

> <Reaction_ID>
BTMR0054

> <Enzyme(s)>
CYP2B6
CYP2C8
CYP2C9
CYP2C19
CYP2D6
CYP3A4

> <Biosystem>
HUMAN

> <Precursor_ID>


> <Precursor_SMILES>
C[C@]12CC[C@H](O)CC1=CC[C@@H]3[C@@H]2CC[C@@]4(C)[C@H]3CC[C@]4(C)O

> <Precursor_InChI>
InChI=1S/C20H32O2/c1-18-9-6-14(21)12-13(18)4-5-15-16(18)7-10-19(2)17(15)8-11-20(19,3)22/h4,14-17,21-22H,5-12H2,1-3H3/t14-,15+,16-,17-,18-,19-,20-/m0/s1

> <Precursor_InChIKey>
WRWBCPJQPDHXTJ-DTMQFJJTSA-N

> <Precursor_ALogP>


> <Precursor_Major_Isotope_Mass>
304.2402

$$$$
BTM00012
  CDK     09122622092D

 23 26  0  0  1  0  0  0  0  0999 V2000
   -1.8400    0.7800    0.0000 C   0  0  0  0  0  0  0  0  0  0  0  0
   -1.8400   -0.7200    0.0000 C   0  0  2  0  0  0  0  0  0  0  0  0
   -3.1400    0.0300    0.0000 C   0  0  0  0  0  0  0  0  0  0  0  0
   -4.4400   -0.7200    0.0000 C   0  0  0  0  0  0  0  0  0  0  0  0
   -4.4400   -2.2200    0.0000 C   0  0  2  0  0  0  0  0  0  0  0  0
   -5.7389   -2.9702    0.0000 O   0  0  0  0  0  0  0  0  0  0  0  0
   -3.1400   -2.9700    0.0000 C   0  0  0  0  0  0  0  0  0  0  0  0
   -1.8400   -2.2200    0.0000 C   0  0  0  0  0  0  0  0  0  0  0  0
   -0.5400   -2.9700    0.0000 C   0  0  0  0  0  0  0  0  0  0  0  0
    0.7600   -2.2200    0.0000 C   0  0  0  0  0  0  0  0  0  0  0  0
    0.7600   -0.7200    0.0000 C   0  0  2  0  0  0  0  0  0  0  0  0
   -0.5400    0.0300    0.0000 C   0  0  2  0  0  0  0  0  0  0  0  0
   -0.5400    1.5300    0.0000 C   0  0  0  0  0  0  0  0  0  0  0  0
    0.7600    2.2800    0.0000 C   0  0  0  0  0  0  0  0  0  0  0  0
    2.0600    1.5300    0.0000 C   0  0  1  0  0  0  0  0  0  0  0  0
    2.2172    3.0217    0.0000 C   0  0  0  0  0  0  0  0  0  0  0  0
    2.0600    0.0300    0.0000 C   0  0  1  0  0  0  0  0  0  0  0  0
    3.4800   -0.4400    0.0000 C   0  0  0  0  0  0  0  0  0  0  0  0
    4.3700    0.7800    0.0000 C   0  0  0  0  0  0  0  0  0  0  0  0
    3.4800    1.9900    0.0000 C   0  0  1  0  0  0  0  0  0  0  0  0
    4.7763    2.7447    0.0000 C   0  0  0  0  0  0  0  0  0  0  0  0
    3.1151    3.4449    0.0000 O   0  0  0  0  0  0  0  0  0  0  0  0
    1.0039    3.9038    0.0000 O   0  0  0  0  0  0  0  0  0  0  0  0
  2  1  1  1  0  0  0
  2  3  1  0  0  0  0
  3  4  1  0  0  0  0
  4  5  1  0  0  0  0
  5  6  1  1  0  0  0
  5  7  1  0  0  0  0
  7  8  1  0  0  0  0
  2  8  1  0  0  0  0
  8  9  2  0  0  0  0
  9 10  1  0  0  0  0
 11 10  1  6  0  0  0
 11 12  1  0  0  0  0
  2 12  1  0  0  0  0
 12 13  1  1  0  0  0
 13 14  1  0  0  0  0
 14 15  1  0  0  0  0
 15 16  1  1  0  0  0
 15 17  1  0  0  0  0
 11 17  1  0  0  0  0
 17 18  1  1  0  0  0
 18 19  1  0  0  0  0
 19 20  1  0  0  0  0
 15 20  1  0  0  0  0
 20 21  1  6  0  0  0
 20 22  1  1  0  0  0
 23 16  1  0  0  0  0
M  END
> <InChI>
InChI=1S/C20H32O3/c1-18-8-5-14(22)11-13(18)3-4-15-16(18)7-10-20(12-21)17(15)6-9-19(20,2)23/h3,14-17,21-23H,4-12H2,1-2H3/t14-,15+,16-,17-,18-,19-,20+/m0/s1

> <InChIKey>
MIGZQPMOTLHQMO-IJMQKCTASA-N

> <SMILES>
C[C@]12CC[C@H](O)CC1=CC[C@@H]3[C@@H]2CC[C@@]4(CO)[C@H]3CC[C@]4(C)O

> <Synonyms>


> <PUBCHEM_CID>


> <Molecular_formula>
C20H32O3

> <Major_Isotope_Mass>
320.23514488399996

> <ALogP>
2.3521

> <Lipinski_Violations>
0

> <Insecticide_Likeness_Violations>
1

> <Post_Em_Herbicide_Likeness_Violations>
1

> <Metabolite_ID>
BTM00012

> <Reaction>
Hydroxylation of methyl carbon adjacent to aliphatic ring

> <Reaction_ID>
BTMR0054

> <Enzyme(s)>
CYP2B6
CYP2C8
CYP2C9
CYP2C19
CYP2D6
CYP3A4

> <Biosystem>
HUMAN

> <Precursor_ID>


> <Precursor_SMILES>
C[C@]12CC[C@H](O)CC1=CC[C@@H]3[C@@H]2CC[C@@]4(C)[C@H]3CC[C@]4(C)O

> <Precursor_InChI>
InChI=1S/C20H32O2/c1-18-9-6-14(21)12-13(18)4-5-15-16(18)7-10-19(2)17(15)8-11-20(19,3)22/h4,14-17,21-22H,5-12H2,1-3H3/t14-,15+,16-,17-,18-,19-,20-/m0/s1

> <Precursor_InChIKey>
WRWBCPJQPDHXTJ-DTMQFJJTSA-N

> <Precursor_ALogP>


> <Precursor_Major_Isotope_Mass>
304.2402

$$$$
