BTM00001
  CDK     09122622082D

 20 23  0  0  1  0  0  0  0  0999 V2000
    2.3787    3.4316    0.0000 C   0  0  0  0  0  0  0  0  0  0  0  0
    2.2200    1.9400    0.0000 C   0  0  2  0  0  0  0  0  0  0  0  0
    0.9200    2.6900    0.0000 C   0  0  0  0  0  0  0  0  0  0  0  0
   -0.3800    1.9400    0.0000 C   0  0  0  0  0  0  0  0  0  0  0  0
   -0.3800    0.4400    0.0000 C   0  0  1  0  0  0  0  0  0  0  0  0
    0.9200   -0.3100    0.0000 C   0  0  1  0  0  0  0  0  0  0  0  0
    0.9200   -1.8100    0.0000 C   0  0  0  0  0  0  0  0  0  0  0  0
   -0.3800   -2.5600    0.0000 C   0  0  0  0  0  0  0  0  0  0  0  0
   -1.6800   -1.8100    0.0000 C   0  0  0  0  0  0  0  0  0  0  0  0
   -2.9800   -2.5600    0.0000 C   0  0  0  0  0  0  0  0  0  0  0  0
   -4.2800   -1.8100    0.0000 C   0  0  0  0  0  0  0  0  0  0  0  0
   -5.5789   -2.5602    0.0000 O   0  0  0  0  0  0  0  0  0  0  0  0
   -4.2800   -0.3100    0.0000 C   0  0  0  0  0  0  0  0  0  0  0  0
   -2.9800    0.4400    0.0000 C   0  0  0  0  0  0  0  0  0  0  0  0
   -1.6800   -0.3100    0.0000 C   0  0  2  0  0  0  0  0  0  0  0  0
    2.2200    0.4400    0.0000 C   0  0  2  0  0  0  0  0  0  0  0  0
    3.6500   -0.0200    0.0000 C   0  0  0  0  0  0  0  0  0  0  0  0
    4.5300    1.1900    0.0000 C   0  0  0  0  0  0  0  0  0  0  0  0
    3.6500    2.4000    0.0000 C   0  0  2  0  0  0  0  0  0  0  0  0
    4.1153    3.8260    0.0000 O   0  0  0  0  0  0  0  0  0  0  0  0
  2  1  1  1  0  0  0
  2  3  1  0  0  0  0
  3  4  1  0  0  0  0
  5  4  1  1  0  0  0
  5  6  1  0  0  0  0
  6  7  1  6  0  0  0
  7  8  1  0  0  0  0
  8  9  2  0  0  0  0
  9 10  1  0  0  0  0
 10 11  1  0  0  0  0
 11 12  2  0  0  0  0
 11 13  1  0  0  0  0
 13 14  1  0  0  0  0
 15 14  1  6  0  0  0
  9 15  1  0  0  0  0
  5 15  1  0  0  0  0
  6 16  1  0  0  0  0
  2 16  1  0  0  0  0
 16 17  1  1  0  0  0
 17 18  1  0  0  0  0
 18 19  1  0  0  0  0
  2 19  1  0  0  0  0
 19 20  1  1  0  0  0
M  END
> <InChI>
InChI=1S/C18H26O2/c1-18-9-8-14-13-5-3-12(19)10-11(13)2-4-15(14)16(18)6-7-17(18)20/h2,13-17,20H,3-10H2,1H3/t13-,14+,15+,16-,17-,18-/m0/s1

> <InChIKey>
QFRBXMBCSNKJHV-IZPLOLCNSA-N

> <SMILES>
C[C@]12CC[C@H]3[C@@H](CC=C4CC(=O)CC[C@@H]43)[C@@H]1CC[C@@H]2O

> <Synonyms>


> <PUBCHEM_CID>


> <Molecular_formula>
C18H26O2

> <Major_Isotope_Mass>
274.193280072

> <ALogP>
2.7056999999999984

> <Lipinski_Violations>
0

> <Insecticide_Likeness_Violations>
0

> <Post_Em_Herbicide_Likeness_Violations>
0

> <Metabolite_ID>
BTM00001

> <Reaction>
Dehydrogenation of secondary alcohol

> <Reaction_ID>
BTMR0030

> <Enzyme(s)>
EC 1.1.1.1

> <Biosystem>
HUMAN

> <Precursor_ID>


> <Precursor_SMILES>
C[C@]12CC[C@H]3[C@@H](CC=C4C[C@@H](O)CC[C@@H]43)[C@@H]1CC[C@@H]2O

> <Precursor_InChI>
InChI=1S/C18H28O2/c1-18-9-8-14-13-5-3-12(19)10-11(13)2-4-15(14)16(18)6-7-17(18)20/h2,12-17,19-20H,3-10H2,1H3/t12-,13-,14+,15+,16-,17-,18-/m0/s1

> <Precursor_InChIKey>
VVUQRXPUVKXAIO-XFUVECHXSA-N

> <Precursor_ALogP>


> <Precursor_Major_Isotope_Mass>
276.2089

$$$$
BTM00002
  CDK     09122622082D

 20 23  0  0  1  0  0  0  0  0999 V2000
    2.3787    3.4316    0.0000 C   0  0  0  0  0  0  0  0  0  0  0  0
    2.2200    1.9400    0.0000 C   0  0  2  0  0  0  0  0  0  0  0  0
    0.9200    2.6900    0.0000 C   0  0  0  0  0  0  0  0  0  0  0  0
   -0.3800    1.9400    0.0000 C   0  0  0  0  0  0  0  0  0  0  0  0
   -0.3800    0.4400    0.0000 C   0  0  1  0  0  0  0  0  0  0  0  0
    0.9200   -0.3100    0.0000 C   0  0  1  0  0  0  0  0  0  0  0  0
    0.9200   -1.8100    0.0000 C   0  0  0  0  0  0  0  0  0  0  0  0
   -0.3800   -2.5600    0.0000 C   0  0  0  0  0  0  0  0  0  0  0  0
   -1.6800   -1.8100    0.0000 C   0  0  0  0  0  0  0  0  0  0  0  0
   -2.9800   -2.5600    0.0000 C   0  0  0  0  0  0  0  0  0  0  0  0
   -4.2800   -1.8100    0.0000 C   0  0  0  0  0  5  0  0  0  0  0  0
   -5.5789   -2.5602    0.0000 O   0  0  0  0  0  0  0  0  0  0  0  0
   -4.2800   -0.3100    0.0000 C   0  0  0  0  0  0  0  0  0  0  0  0
   -2.9800    0.4400    0.0000 C   0  0  0  0  0  0  0  0  0  0  0  0
   -1.6800   -0.3100    0.0000 C   0  0  2  0  0  0  0  0  0  0  0  0
    2.2200    0.4400    0.0000 C   0  0  2  0  0  0  0  0  0  0  0  0
    3.6500   -0.0200    0.0000 C   0  0  0  0  0  0  0  0  0  0  0  0
    4.5300    1.1900    0.0000 C   0  0  0  0  0  0  0  0  0  0  0  0
    3.6500    2.4000    0.0000 C   0  0  2  0  0  0  0  0  0  0  0  0
    4.1153    3.8260    0.0000 O   0  0  0  0  0  0  0  0  0  0  0  0
  2  1  1  1  0  0  0
  2  3  1  0  0  0  0
  3  4  1  0  0  0  0
  5  4  1  1  0  0  0
  5  6  1  0  0  0  0
  6  7  1  6  0  0  0
  7  8  1  0  0  0  0
  8  9  2  0  0  0  0
  9 10  1  0  0  0  0
 10 11  1  0  0  0  0
 11 12  2  0  0  0  0
 11 13  1  0  0  0  0
 13 14  1  0  0  0  0
 15 14  1  6  0  0  0
  9 15  1  0  0  0  0
  5 15  1  0  0  0  0
  6 16  1  0  0  0  0
  2 16  1  0  0  0  0
 16 17  1  1  0  0  0
 17 18  1  0  0  0  0
 18 19  1  0  0  0  0
  2 19  1  0  0  0  0
 19 20  1  1  0  0  0
M  END
> <InChI>
InChI=1S/C18H27O2/c1-18-9-8-14-13-5-3-12(19)10-11(13)2-4-15(14)16(18)6-7-17(18)20/h2,12-17,20H,3-10H2,1H3/t13-,14+,15+,16-,17-,18-/m0/s1

> <InChIKey>
ZCJMOZGOGPEUHV-IZPLOLCNSA-N

> <SMILES>
C[C@]12CC[C@H]3[C@@H](CC=C4C[CH](=O)CC[C@@H]43)[C@@H]1CC[C@@H]2O

> <Synonyms>


> <PUBCHEM_CID>


> <Molecular_formula>
C18H27O2

> <Major_Isotope_Mass>
275.201105104

> <ALogP>
2.9461999999999993

> <Lipinski_Violations>
0

> <Insecticide_Likeness_Violations>
0

> <Post_Em_Herbicide_Likeness_Violations>
0

> <Metabolite_ID>
BTM00002

> <Reaction>
Dehydrogenation of 3-beta-hydroxy-delta-5-steroid

> <Reaction_ID>
BTMR0363

> <Enzyme(s)>
EC 1.1.1.145

> <Biosystem>
HUMAN

> <Precursor_ID>


> <Precursor_SMILES>
C[C@]12CC[C@H]3[C@@H](CC=C4C[C@@H](O)CC[C@@H]43)[C@@H]1CC[C@@H]2O

> <Precursor_InChI>
InChI=1S/C18H28O2/c1-18-9-8-14-13-5-3-12(19)10-11(13)2-4-15(14)16(18)6-7-17(18)20/h2,12-17,19-20H,3-10H2,1H3/t12-,13-,14+,15+,16-,17-,18-/m0/s1

> <Precursor_InChIKey>
VVUQRXPUVKXAIO-XFUVECHXSA-N

> <Precursor_ALogP>


> <Precursor_Major_Isotope_Mass>
276.2089

$$$$
BTM00003
  CDK     09122622082D

 20 23  0  0  1  0  0  0  0  0999 V2000
    2.3787    3.4316    0.0000 C   0  0  0  0  0  0  0  0  0  0  0  0
    2.2200    1.9400    0.0000 C   0  0  2  0  0  0  0  0  0  0  0  0
    0.9200    2.6900    0.0000 C   0  0  0  0  0  0  0  0  0  0  0  0
   -0.3800    1.9400    0.0000 C   0  0  0  0  0  0  0  0  0  0  0  0
   -0.3800    0.4400    0.0000 C   0  0  1  0  0  0  0  0  0  0  0  0
    0.9200   -0.3100    0.0000 C   0  0  1  0  0  0  0  0  0  0  0  0
    0.9200   -1.8100    0.0000 C   0  0  0  0  0  0  0  0  0  0  0  0
   -0.3800   -2.5600    0.0000 C   0  0  0  0  0  0  0  0  0  0  0  0
   -1.6800   -1.8100    0.0000 C   0  0  0  0  0  0  0  0  0  0  0  0
   -2.9800   -2.5600    0.0000 C   0  0  0  0  0  0  0  0  0  0  0  0
   -4.2800   -1.8100    0.0000 C   0  0  1  0  0  0  0  0  0  0  0  0
   -5.5789   -2.5602    0.0000 O   0  0  0  0  0  0  0  0  0  0  0  0
   -4.2800   -0.3100    0.0000 C   0  0  0  0  0  0  0  0  0  0  0  0
   -2.9800    0.4400    0.0000 C   0  0  0  0  0  0  0  0  0  0  0  0
   -1.6800   -0.3100    0.0000 C   0  0  2  0  0  0  0  0  0  0  0  0
    2.2200    0.4400    0.0000 C   0  0  2  0  0  0  0  0  0  0  0  0
    3.6500   -0.0200    0.0000 C   0  0  0  0  0  0  0  0  0  0  0  0
    4.5300    1.1900    0.0000 C   0  0  0  0  0  0  0  0  0  0  0  0
    3.6500    2.4000    0.0000 C   0  0  0  0  0  0  0  0  0  0  0  0
    4.1153    3.8260    0.0000 O   0  0  0  0  0  0  0  0  0  0  0  0
  2  1  1  1  0  0  0
  2  3  1  0  0  0  0
  3  4  1  0  0  0  0
  5  4  1  1  0  0  0
  5  6  1  0  0  0  0
  6  7  1  6  0  0  0
  7  8  1  0  0  0  0
  8  9  2  0  0  0  0
  9 10  1  0  0  0  0
 10 11  1  0  0  0  0
 11 12  1  1  0  0  0
 11 13  1  0  0  0  0
 13 14  1  0  0  0  0
 15 14  1  6  0  0  0
  9 15  1  0  0  0  0
  5 15  1  0  0  0  0
  6 16  1  0  0  0  0
  2 16  1  0  0  0  0
 16 17  1  1  0  0  0
 17 18  1  0  0  0  0
 18 19  1  0  0  0  0
  2 19  1  0  0  0  0
 19 20  2  0  0  0  0
M  END
> <InChI>
InChI=1S/C18H26O2/c1-18-9-8-14-13-5-3-12(19)10-11(13)2-4-15(14)16(18)6-7-17(18)20/h2,12-16,19H,3-10H2,1H3/t12-,13-,14+,15+,16-,18-/m0/s1

> <InChIKey>
KELRVUIFMYCLHB-MTLKIPAASA-N

> <SMILES>
C[C@]12CC[C@H]3[C@@H](CC=C4C[C@@H](O)CC[C@@H]43)[C@@H]1CCC2=O

> <Synonyms>


> <PUBCHEM_CID>


> <Molecular_formula>
C18H26O2

> <Major_Isotope_Mass>
274.193280072

> <ALogP>
2.992099999999998

> <Lipinski_Violations>
0

> <Insecticide_Likeness_Violations>
0

> <Post_Em_Herbicide_Likeness_Violations>
0

> <Metabolite_ID>
BTM00003

> <Reaction>
Dehydrogenation of 17-beta-hydroxysteroid

> <Reaction_ID>
BTMR0370

> <Enzyme(s)>
EC 1.1.1.239

> <Biosystem>
HUMAN

> <Precursor_ID>


> <Precursor_SMILES>
C[C@]12CC[C@H]3[C@@H](CC=C4C[C@@H](O)CC[C@@H]43)[C@@H]1CC[C@@H]2O

> <Precursor_InChI>
InChI=1S/C18H28O2/c1-18-9-8-14-13-5-3-12(19)10-11(13)2-4-15(14)16(18)6-7-17(18)20/h2,12-17,19-20H,3-10H2,1H3/t12-,13-,14+,15+,16-,17-,18-/m0/s1

> <Precursor_InChIKey>
VVUQRXPUVKXAIO-XFUVECHXSA-N

> <Precursor_ALogP>


> <Precursor_Major_Isotope_Mass>
276.2089

$$$$
BTM00004
  CDK     09122622082D

 21 24  0  0  1  0  0  0  0  0999 V2000
    2.3787    3.4316    0.0000 C   0  0  0  0  0  0  0  0  0  0  0  0
    2.2200    1.9400    0.0000 C   0  0  2  0  0  0  0  0  0  0  0  0
    0.9200    2.6900    0.0000 C   0  0  0  0  0  0  0  0  0  0  0  0
   -0.3800    1.9400    0.0000 C   0  0  0  0  0  0  0  0  0  0  0  0
   -0.3800    0.4400    0.0000 C   0  0  1  0  0  0  0  0  0  0  0  0
    0.9200   -0.3100    0.0000 C   0  0  1  0  0  0  0  0  0  0  0  0
    0.9200   -1.8100    0.0000 C   0  0  0  0  0  0  0  0  0  0  0  0
   -0.3800   -2.5600    0.0000 C   0  0  0  0  0  0  0  0  0  0  0  0
   -1.6800   -1.8100    0.0000 C   0  0  0  0  0  0  0  0  0  0  0  0
   -2.9800   -2.5600    0.0000 C   0  0  0  0  0  0  0  0  0  0  0  0
   -4.2800   -1.8100    0.0000 C   0  0  1  0  0  0  0  0  0  0  0  0
   -5.5789   -2.5602    0.0000 O   0  0  0  0  0  0  0  0  0  0  0  0
   -4.2800   -0.3100    0.0000 C   0  0  0  0  0  0  0  0  0  0  0  0
   -2.9800    0.4400    0.0000 C   0  0  0  0  0  0  0  0  0  0  0  0
   -1.6800   -0.3100    0.0000 C   0  0  2  0  0  0  0  0  0  0  0  0
    2.2200    0.4400    0.0000 C   0  0  2  0  0  0  0  0  0  0  0  0
    3.6500   -0.0200    0.0000 C   0  0  0  0  0  0  0  0  0  0  0  0
    4.5300    1.1900    0.0000 C   0  0  0  0  0  0  0  0  0  0  0  0
    3.6500    2.4000    0.0000 C   0  0  2  0  0  0  0  0  0  0  0  0
    4.1153    3.8260    0.0000 O   0  0  0  0  0  0  0  0  0  0  0  0
   -1.6789    2.6902    0.0000 O   0  0  0  0  0  0  0  0  0  0  0  0
  2  1  1  1  0  0  0
  2  3  1  0  0  0  0
  3  4  1  0  0  0  0
  5  4  1  1  0  0  0
  5  6  1  0  0  0  0
  6  7  1  6  0  0  0
  7  8  1  0  0  0  0
  8  9  2  0  0  0  0
  9 10  1  0  0  0  0
 10 11  1  0  0  0  0
 11 12  1  1  0  0  0
 11 13  1  0  0  0  0
 13 14  1  0  0  0  0
 15 14  1  6  0  0  0
  9 15  1  0  0  0  0
  5 15  1  0  0  0  0
  6 16  1  0  0  0  0
  2 16  1  0  0  0  0
 16 17  1  1  0  0  0
 17 18  1  0  0  0  0
 18 19  1  0  0  0  0
  2 19  1  0  0  0  0
 19 20  1  1  0  0  0
 21  4  1  0  0  0  0
M  END
> <InChI>
InChI=1S/C18H28O3/c1-18-9-15(20)17-12-5-3-11(19)8-10(12)2-4-13(17)14(18)6-7-16(18)21/h2,11-17,19-21H,3-9H2,1H3/t11-,12-,13-,14-,15?,16-,17+,18-/m0/s1

> <InChIKey>
GIJYAAXMHKHZBX-INIGNVBQSA-N

> <SMILES>
C[C@]12CC([C@H]3[C@@H](CC=C4C[C@@H](O)CC[C@@H]43)[C@@H]1CC[C@@H]2O)O

> <Synonyms>


> <PUBCHEM_CID>


> <Molecular_formula>
C18H28O3

> <Major_Isotope_Mass>
292.20384475599997

> <ALogP>
1.8622000000000014

> <Lipinski_Violations>
0

> <Insecticide_Likeness_Violations>
1

> <Post_Em_Herbicide_Likeness_Violations>
1

> <Metabolite_ID>
BTM00004

> <Reaction>
11-beta-Hydroxylation of sterol

> <Reaction_ID>
BTMR0406

> <Enzyme(s)>
EC 1.14.15.4

> <Biosystem>
HUMAN

> <Precursor_ID>


> <Precursor_SMILES>
C[C@]12CC[C@H]3[C@@H](CC=C4C[C@@H](O)CC[C@@H]43)[C@@H]1CC[C@@H]2O

> <Precursor_InChI>
InChI=1S/C18H28O2/c1-18-9-8-14-13-5-3-12(19)10-11(13)2-4-15(14)16(18)6-7-17(18)20/h2,12-17,19-20H,3-10H2,1H3/t12-,13-,14+,15+,16-,17-,18-/m0/s1

> <Precursor_InChIKey>
VVUQRXPUVKXAIO-XFUVECHXSA-N

> <Precursor_ALogP>


> <Precursor_Major_Isotope_Mass>
276.2089

$$$$
BTM00005
  CDK     09122622082D

 32 36  0  0  1  0  0  0  0  0999 V2000
    2.3365    3.1918    0.0000 C   0  0  0  0  0  0  0  0  0  0  0  0
    2.1800    1.7000    0.0000 C   0  0  2  0  0  0  0  0  0  0  0  0
    0.8900    2.4500    0.0000 C   0  0  0  0  0  0  0  0  0  0  0  0
   -0.4100    1.7000    0.0000 C   0  0  0  0  0  0  0  0  0  0  0  0
   -0.4100    0.2000    0.0000 C   0  0  1  0  0  0  0  0  0  0  0  0
    0.8900   -0.5500    0.0000 C   0  0  1  0  0  0  0  0  0  0  0  0
    0.8900   -2.0500    0.0000 C   0  0  0  0  0  0  0  0  0  0  0  0
   -0.4100   -2.8000    0.0000 C   0  0  0  0  0  0  0  0  0  0  0  0
   -1.7100   -2.0500    0.0000 C   0  0  0  0  0  0  0  0  0  0  0  0
   -3.0100   -2.8000    0.0000 C   0  0  0  0  0  0  0  0  0  0  0  0
   -4.3100   -2.0500    0.0000 C   0  0  1  0  0  0  0  0  0  0  0  0
   -5.6089   -2.8002    0.0000 O   0  0  0  0  0  0  0  0  0  0  0  0
   -4.3100   -0.5500    0.0000 C   0  0  0  0  0  0  0  0  0  0  0  0
   -3.0100    0.2000    0.0000 C   0  0  0  0  0  0  0  0  0  0  0  0
   -1.7100   -0.5500    0.0000 C   0  0  2  0  0  0  0  0  0  0  0  0
    2.1800    0.2000    0.0000 C   0  0  2  0  0  0  0  0  0  0  0  0
    3.6100   -0.2600    0.0000 C   0  0  0  0  0  0  0  0  0  0  0  0
    4.4900    0.9500    0.0000 C   0  0  0  0  0  0  0  0  0  0  0  0
    3.6100    2.1700    0.0000 C   0  0  2  0  0  0  0  0  0  0  0  0
    4.0736    3.5966    0.0000 O   0  0  0  0  0  0  0  0  0  0  0  0
   -8.2067   -4.2912    0.0000 O   0  0  0  0  0  0  0  0  0  0  0  0
   -8.2009   -2.7912    0.0000 C   0  0  0  0  0  0  0  0  0  0  0  0
   -9.5166   -2.0237    0.0000 C   0  0  0  0  0  0  0  0  0  0  0  0
  -10.8205   -2.7651    0.0000 O   0  0  0  0  0  0  0  0  0  0  0  0
   -9.5034   -0.5179    0.0000 C   0  0  0  0  0  0  0  0  0  0  0  0
  -10.7979    0.2399    0.0000 O   0  0  0  0  0  0  0  0  0  0  0  0
   -8.2106    0.2229    0.0000 C   0  0  0  0  0  0  0  0  0  0  0  0
   -6.9136   -0.5322    0.0000 O   0  0  0  0  0  0  0  0  0  0  0  0
   -6.9081   -2.0504    0.0000 C   0  0  0  0  0  0  0  0  0  0  0  0
   -8.2054    1.7229    0.0000 C   0  0  0  0  0  0  0  0  0  0  0  0
   -9.5019    2.4773    0.0000 O   0  0  0  0  0  0  0  0  0  0  0  0
   -6.9038    2.4684    0.0000 O   0  0  0  0  0  0  0  0  0  0  0  0
  2  1  1  1  0  0  0
  2  3  1  0  0  0  0
  3  4  1  0  0  0  0
  5  4  1  1  0  0  0
  5  6  1  0  0  0  0
  6  7  1  6  0  0  0
  7  8  1  0  0  0  0
  8  9  2  0  0  0  0
  9 10  1  0  0  0  0
 10 11  1  0  0  0  0
 11 12  1  1  0  0  0
 11 13  1  0  0  0  0
 13 14  1  0  0  0  0
 15 14  1  6  0  0  0
  9 15  1  0  0  0  0
  5 15  1  0  0  0  0
  6 16  1  0  0  0  0
  2 16  1  0  0  0  0
 16 17  1  1  0  0  0
 17 18  1  0  0  0  0
 18 19  1  0  0  0  0
  2 19  1  0  0  0  0
 19 20  1  1  0  0  0
 21 22  1  0  0  0  0
 22 23  1  0  0  0  0
 23 24  1  0  0  0  0
 23 25  1  0  0  0  0
 25 26  1  0  0  0  0
 25 27  1  0  0  0  0
 27 28  1  0  0  0  0
 28 29  1  0  0  0  0
 22 29  1  0  0  0  0
 29 12  1  0  0  0  0
 27 30  1  0  0  0  0
 30 31  1  0  0  0  0
 30 32  2  0  0  0  0
M  END
> <InChI>
InChI=1S/C24H36O8/c1-24-9-8-14-13-5-3-12(10-11(13)2-4-15(14)16(24)6-7-17(24)25)31-23-20(28)18(26)19(27)21(32-23)22(29)30/h2,12-21,23,25-28H,3-10H2,1H3,(H,29,30)/t12-,13-,14+,15+,16-,17-,18?,19?,20?,21?,23?,24-/m0/s1

> <InChIKey>
DZEKMODKHBKGJE-ODXZMCGMSA-N

> <SMILES>
C[C@]12CC[C@H]3[C@@H](CC=C4C[C@@H](OC5OC(C(C(C5O)O)O)C(O)=O)CC[C@@H]43)[C@@H]1CC[C@@H]2O

> <Synonyms>


> <PUBCHEM_CID>


> <Molecular_formula>
C24H36O8

> <Major_Isotope_Mass>
452.241018112

> <ALogP>
1.493599999999997

> <Lipinski_Violations>
0

> <Insecticide_Likeness_Violations>
1

> <Post_Em_Herbicide_Likeness_Violations>
1

> <Metabolite_ID>
BTM00005

> <Reaction>
3-OH-Glucuronidation of sterol

> <Reaction_ID>
BTMR0157

> <Enzyme(s)>
EC 2.4.1.17

> <Biosystem>
HUMAN

> <Precursor_ID>


> <Precursor_SMILES>
C[C@]12CC[C@H]3[C@@H](CC=C4C[C@@H](O)CC[C@@H]43)[C@@H]1CC[C@@H]2O

> <Precursor_InChI>
InChI=1S/C18H28O2/c1-18-9-8-14-13-5-3-12(19)10-11(13)2-4-15(14)16(18)6-7-17(18)20/h2,12-17,19-20H,3-10H2,1H3/t12-,13-,14+,15+,16-,17-,18-/m0/s1

> <Precursor_InChIKey>
VVUQRXPUVKXAIO-XFUVECHXSA-N

> <Precursor_ALogP>


> <Precursor_Major_Isotope_Mass>
276.2089

$$$$
BTM00006
  CDK     09122622082D

 32 36  0  0  1  0  0  0  0  0999 V2000
    2.3365    3.1918    0.0000 C   0  0  0  0  0  0  0  0  0  0  0  0
    2.1800    1.7000    0.0000 C   0  0  2  0  0  0  0  0  0  0  0  0
    0.8900    2.4500    0.0000 C   0  0  0  0  0  0  0  0  0  0  0  0
   -0.4100    1.7000    0.0000 C   0  0  0  0  0  0  0  0  0  0  0  0
   -0.4100    0.2000    0.0000 C   0  0  1  0  0  0  0  0  0  0  0  0
    0.8900   -0.5500    0.0000 C   0  0  1  0  0  0  0  0  0  0  0  0
    0.8900   -2.0500    0.0000 C   0  0  0  0  0  0  0  0  0  0  0  0
   -0.4100   -2.8000    0.0000 C   0  0  0  0  0  0  0  0  0  0  0  0
   -1.7100   -2.0500    0.0000 C   0  0  0  0  0  0  0  0  0  0  0  0
   -3.0100   -2.8000    0.0000 C   0  0  0  0  0  0  0  0  0  0  0  0
   -4.3100   -2.0500    0.0000 C   0  0  1  0  0  0  0  0  0  0  0  0
   -5.6089   -2.8002    0.0000 O   0  0  0  0  0  0  0  0  0  0  0  0
   -4.3100   -0.5500    0.0000 C   0  0  0  0  0  0  0  0  0  0  0  0
   -3.0100    0.2000    0.0000 C   0  0  0  0  0  0  0  0  0  0  0  0
   -1.7100   -0.5500    0.0000 C   0  0  2  0  0  0  0  0  0  0  0  0
    2.1800    0.2000    0.0000 C   0  0  2  0  0  0  0  0  0  0  0  0
    3.6100   -0.2600    0.0000 C   0  0  0  0  0  0  0  0  0  0  0  0
    4.4900    0.9500    0.0000 C   0  0  0  0  0  0  0  0  0  0  0  0
    3.6100    2.1700    0.0000 C   0  0  2  0  0  0  0  0  0  0  0  0
    4.0736    3.5966    0.0000 O   0  0  0  0  0  0  0  0  0  0  0  0
    5.0070    6.4427    0.0000 O   0  0  0  0  0  0  0  0  0  0  0  0
    6.0061    5.3239    0.0000 C   0  0  0  0  0  0  0  0  0  0  0  0
    7.4975    5.6336    0.0000 C   0  0  0  0  0  0  0  0  0  0  0  0
    7.9707    7.0570    0.0000 O   0  0  0  0  0  0  0  0  0  0  0  0
    8.4951    4.5056    0.0000 C   0  0  0  0  0  0  0  0  0  0  0  0
    9.9642    4.8084    0.0000 O   0  0  0  0  0  0  0  0  0  0  0  0
    8.0297    3.0901    0.0000 C   0  0  0  0  0  0  0  0  0  0  0  0
    6.5605    2.7837    0.0000 O   0  0  0  0  0  0  0  0  0  0  0  0
    5.5408    3.9084    0.0000 C   0  0  0  0  0  0  0  0  0  0  0  0
    9.0294    1.9718    0.0000 C   0  0  0  0  0  0  0  0  0  0  0  0
   10.4977    2.2783    0.0000 O   0  0  0  0  0  0  0  0  0  0  0  0
    8.5607    0.5469    0.0000 O   0  0  0  0  0  0  0  0  0  0  0  0
  2  1  1  1  0  0  0
  2  3  1  0  0  0  0
  3  4  1  0  0  0  0
  5  4  1  1  0  0  0
  5  6  1  0  0  0  0
  6  7  1  6  0  0  0
  7  8  1  0  0  0  0
  8  9  2  0  0  0  0
  9 10  1  0  0  0  0
 10 11  1  0  0  0  0
 11 12  1  1  0  0  0
 11 13  1  0  0  0  0
 13 14  1  0  0  0  0
 15 14  1  6  0  0  0
  9 15  1  0  0  0  0
  5 15  1  0  0  0  0
  6 16  1  0  0  0  0
  2 16  1  0  0  0  0
 16 17  1  1  0  0  0
 17 18  1  0  0  0  0
 18 19  1  0  0  0  0
  2 19  1  0  0  0  0
 19 20  1  1  0  0  0
 21 22  1  0  0  0  0
 22 23  1  0  0  0  0
 23 24  1  0  0  0  0
 23 25  1  0  0  0  0
 25 26  1  0  0  0  0
 25 27  1  0  0  0  0
 27 28  1  0  0  0  0
 28 29  1  0  0  0  0
 22 29  1  0  0  0  0
 29 20  1  0  0  0  0
 27 30  1  0  0  0  0
 30 31  1  0  0  0  0
 30 32  2  0  0  0  0
M  END
> <InChI>
InChI=1S/C24H36O8/c1-24-9-8-14-13-5-3-12(25)10-11(13)2-4-15(14)16(24)6-7-17(24)31-23-20(28)18(26)19(27)21(32-23)22(29)30/h2,12-21,23,25-28H,3-10H2,1H3,(H,29,30)/t12-,13-,14+,15+,16-,17-,18?,19?,20?,21?,23?,24-/m0/s1

> <InChIKey>
PLTJBJSDLZGQFG-ODXZMCGMSA-N

> <SMILES>
C[C@]12CC[C@H]3[C@@H](CC=C4C[C@@H](O)CC[C@@H]43)[C@@H]1CC[C@@H]2OC5OC(C(C(C5O)O)O)C(O)=O

> <Synonyms>


> <PUBCHEM_CID>


> <Molecular_formula>
C24H36O8

> <Major_Isotope_Mass>
452.241018112

> <ALogP>
1.493599999999997

> <Lipinski_Violations>
0

> <Insecticide_Likeness_Violations>
1

> <Post_Em_Herbicide_Likeness_Violations>
1

> <Metabolite_ID>
BTM00006

> <Reaction>
17-OH-Glucuronidation of sterol

> <Reaction_ID>
BTMR0163

> <Enzyme(s)>
EC 2.4.1.17

> <Biosystem>
HUMAN

> <Precursor_ID>


> <Precursor_SMILES>
C[C@]12CC[C@H]3[C@@H](CC=C4C[C@@H](O)CC[C@@H]43)[C@@H]1CC[C@@H]2O

> <Precursor_InChI>
InChI=1S/C18H28O2/c1-18-9-8-14-13-5-3-12(19)10-11(13)2-4-15(14)16(18)6-7-17(18)20/h2,12-17,19-20H,3-10H2,1H3/t12-,13-,14+,15+,16-,17-,18-/m0/s1

> <Precursor_InChIKey>
VVUQRXPUVKXAIO-XFUVECHXSA-N

> <Precursor_ALogP>


> <Precursor_Major_Isotope_Mass>
276.2089

$$$$
BTM00007
  CDK     09122622082D

 31 35  0  0  1  0  0  0  0  0999 V2000
    2.3365    3.1918    0.0000 C   0  0  0  0  0  0  0  0  0  0  0  0
    2.1800    1.7000    0.0000 C   0  0  2  0  0  0  0  0  0  0  0  0
    0.8900    2.4500    0.0000 C   0  0  0  0  0  0  0  0  0  0  0  0
   -0.4100    1.7000    0.0000 C   0  0  0  0  0  0  0  0  0  0  0  0
   -0.4100    0.2000    0.0000 C   0  0  1  0  0  0  0  0  0  0  0  0
    0.8900   -0.5500    0.0000 C   0  0  1  0  0  0  0  0  0  0  0  0
    0.8900   -2.0500    0.0000 C   0  0  0  0  0  0  0  0  0  0  0  0
   -0.4100   -2.8000    0.0000 C   0  0  0  0  0  0  0  0  0  0  0  0
   -1.7100   -2.0500    0.0000 C   0  0  0  0  0  0  0  0  0  0  0  0
   -3.0100   -2.8000    0.0000 C   0  0  0  0  0  0  0  0  0  0  0  0
   -4.3100   -2.0500    0.0000 C   0  0  1  0  0  0  0  0  0  0  0  0
   -5.6089   -2.8002    0.0000 O   0  0  0  0  0  0  0  0  0  0  0  0
   -4.3100   -0.5500    0.0000 C   0  0  0  0  0  0  0  0  0  0  0  0
   -3.0100    0.2000    0.0000 C   0  0  0  0  0  0  0  0  0  0  0  0
   -1.7100   -0.5500    0.0000 C   0  0  2  0  0  0  0  0  0  0  0  0
    2.1800    0.2000    0.0000 C   0  0  2  0  0  0  0  0  0  0  0  0
    3.6100   -0.2600    0.0000 C   0  0  0  0  0  0  0  0  0  0  0  0
    4.4900    0.9500    0.0000 C   0  0  0  0  0  0  0  0  0  0  0  0
    3.6100    2.1700    0.0000 C   0  0  2  0  0  0  0  0  0  0  0  0
    4.0736    3.5966    0.0000 O   0  0  0  0  0  0  0  0  0  0  0  0
   -9.5019    2.4773    0.0000 O   0  0  0  0  0  0  0  0  0  0  0  0
   -8.2054    1.7229    0.0000 C   0  0  0  0  0  0  0  0  0  0  0  0
   -8.2106    0.2229    0.0000 C   0  0  0  0  0  0  0  0  0  0  0  0
   -6.9136   -0.5322    0.0000 O   0  0  0  0  0  0  0  0  0  0  0  0
   -6.9081   -2.0504    0.0000 C   0  0  0  0  0  0  0  0  0  0  0  0
   -8.2009   -2.7912    0.0000 C   0  0  0  0  0  0  0  0  0  0  0  0
   -8.2067   -4.2912    0.0000 O   0  0  0  0  0  0  0  0  0  0  0  0
   -9.5166   -2.0237    0.0000 C   0  0  0  0  0  0  0  0  0  0  0  0
  -10.8205   -2.7651    0.0000 O   0  0  0  0  0  0  0  0  0  0  0  0
   -9.5034   -0.5179    0.0000 C   0  0  0  0  0  0  0  0  0  0  0  0
  -10.7979    0.2399    0.0000 O   0  0  0  0  0  0  0  0  0  0  0  0
  2  1  1  1  0  0  0
  2  3  1  0  0  0  0
  3  4  1  0  0  0  0
  5  4  1  1  0  0  0
  5  6  1  0  0  0  0
  6  7  1  6  0  0  0
  7  8  1  0  0  0  0
  8  9  2  0  0  0  0
  9 10  1  0  0  0  0
 10 11  1  0  0  0  0
 11 12  1  1  0  0  0
 11 13  1  0  0  0  0
 13 14  1  0  0  0  0
 15 14  1  6  0  0  0
  9 15  1  0  0  0  0
  5 15  1  0  0  0  0
  6 16  1  0  0  0  0
  2 16  1  0  0  0  0
 16 17  1  1  0  0  0
 17 18  1  0  0  0  0
 18 19  1  0  0  0  0
  2 19  1  0  0  0  0
 19 20  1  1  0  0  0
 21 22  1  0  0  0  0
 22 23  1  0  0  0  0
 23 24  1  0  0  0  0
 24 25  1  0  0  0  0
 25 12  1  0  0  0  0
 25 26  1  0  0  0  0
 26 27  1  0  0  0  0
 26 28  1  0  0  0  0
 28 29  1  0  0  0  0
 28 30  1  0  0  0  0
 23 30  1  0  0  0  0
 30 31  1  0  0  0  0
M  END
> <InChI>
InChI=1S/C24H38O7/c1-24-9-8-15-14-5-3-13(30-23-22(29)21(28)20(27)18(11-25)31-23)10-12(14)2-4-16(15)17(24)6-7-19(24)26/h2,13-23,25-29H,3-11H2,1H3/t13-,14-,15+,16+,17-,18?,19-,20?,21?,22?,23?,24-/m0/s1

> <InChIKey>
NFKOGQJNLJWZIJ-LVHGUYPZSA-N

> <SMILES>
C[C@]12CC[C@H]3[C@@H](CC=C4C[C@@H](OC5OC(CO)C(C(C5O)O)O)CC[C@@H]43)[C@@H]1CC[C@@H]2O

> <Synonyms>


> <PUBCHEM_CID>


> <Molecular_formula>
C24H38O7

> <Major_Isotope_Mass>
438.261753556

> <ALogP>
1.284700000000001

> <Lipinski_Violations>
0

> <Insecticide_Likeness_Violations>
1

> <Post_Em_Herbicide_Likeness_Violations>
1

> <Metabolite_ID>
BTM00007

> <Reaction>
3-beta-Glycosylation of sterol

> <Reaction_ID>
BTMR0186

> <Enzyme(s)>
EC 2.4.1.173

> <Biosystem>
HUMAN

> <Precursor_ID>


> <Precursor_SMILES>
C[C@]12CC[C@H]3[C@@H](CC=C4C[C@@H](O)CC[C@@H]43)[C@@H]1CC[C@@H]2O

> <Precursor_InChI>
InChI=1S/C18H28O2/c1-18-9-8-14-13-5-3-12(19)10-11(13)2-4-15(14)16(18)6-7-17(18)20/h2,12-17,19-20H,3-10H2,1H3/t12-,13-,14+,15+,16-,17-,18-/m0/s1

> <Precursor_InChIKey>
VVUQRXPUVKXAIO-XFUVECHXSA-N

> <Precursor_ALogP>


> <Precursor_Major_Isotope_Mass>
276.2089

$$$$
BTM00008
  CDK     09122622082D

 24 27  0  0  1  0  0  0  0  0999 V2000
    2.3365    3.1918    0.0000 C   0  0  0  0  0  0  0  0  0  0  0  0
    2.1800    1.7000    0.0000 C   0  0  2  0  0  0  0  0  0  0  0  0
    0.8900    2.4500    0.0000 C   0  0  0  0  0  0  0  0  0  0  0  0
   -0.4100    1.7000    0.0000 C   0  0  0  0  0  0  0  0  0  0  0  0
   -0.4100    0.2000    0.0000 C   0  0  1  0  0  0  0  0  0  0  0  0
    0.8900   -0.5500    0.0000 C   0  0  1  0  0  0  0  0  0  0  0  0
    0.8900   -2.0500    0.0000 C   0  0  0  0  0  0  0  0  0  0  0  0
   -0.4100   -2.8000    0.0000 C   0  0  0  0  0  0  0  0  0  0  0  0
   -1.7100   -2.0500    0.0000 C   0  0  0  0  0  0  0  0  0  0  0  0
   -3.0100   -2.8000    0.0000 C   0  0  0  0  0  0  0  0  0  0  0  0
   -4.3100   -2.0500    0.0000 C   0  0  1  0  0  0  0  0  0  0  0  0
   -5.6089   -2.8002    0.0000 O   0  0  0  0  0  0  0  0  0  0  0  0
   -4.3100   -0.5500    0.0000 C   0  0  0  0  0  0  0  0  0  0  0  0
   -3.0100    0.2000    0.0000 C   0  0  0  0  0  0  0  0  0  0  0  0
   -1.7100   -0.5500    0.0000 C   0  0  2  0  0  0  0  0  0  0  0  0
    2.1800    0.2000    0.0000 C   0  0  2  0  0  0  0  0  0  0  0  0
    3.6100   -0.2600    0.0000 C   0  0  0  0  0  0  0  0  0  0  0  0
    4.4900    0.9500    0.0000 C   0  0  0  0  0  0  0  0  0  0  0  0
    3.6100    2.1700    0.0000 C   0  0  2  0  0  0  0  0  0  0  0  0
    4.0736    3.5966    0.0000 O   0  0  0  0  0  0  0  0  0  0  0  0
   -6.1583   -0.7513    0.0000 O   0  0  0  0  0  0  0  0  0  0  0  0
   -6.9081   -2.0504    0.0000 S   0  0  0  0  0  0  0  0  0  0  0  0
   -8.2072   -1.3006    0.0000 O   0  0  0  0  0  0  0  0  0  0  0  0
   -7.6579   -3.3496    0.0000 O   0  0  0  0  0  0  0  0  0  0  0  0
  2  1  1  1  0  0  0
  2  3  1  0  0  0  0
  3  4  1  0  0  0  0
  5  4  1  1  0  0  0
  5  6  1  0  0  0  0
  6  7  1  6  0  0  0
  7  8  1  0  0  0  0
  8  9  2  0  0  0  0
  9 10  1  0  0  0  0
 10 11  1  0  0  0  0
 11 12  1  1  0  0  0
 11 13  1  0  0  0  0
 13 14  1  0  0  0  0
 15 14  1  6  0  0  0
  9 15  1  0  0  0  0
  5 15  1  0  0  0  0
  6 16  1  0  0  0  0
  2 16  1  0  0  0  0
 16 17  1  1  0  0  0
 17 18  1  0  0  0  0
 18 19  1  0  0  0  0
  2 19  1  0  0  0  0
 19 20  1  1  0  0  0
 21 22  1  0  0  0  0
 22 23  2  0  0  0  0
 22 24  2  0  0  0  0
 22 12  1  0  0  0  0
M  END
> <InChI>
InChI=1S/C18H28O5S/c1-18-9-8-14-13-5-3-12(23-24(20,21)22)10-11(13)2-4-15(14)16(18)6-7-17(18)19/h2,12-17,19H,3-10H2,1H3,(H,20,21,22)/t12-,13-,14+,15+,16-,17-,18-/m0/s1

> <InChIKey>
GQQUASPCCGDCJF-XFUVECHXSA-N

> <SMILES>
C[C@]12CC[C@H]3[C@@H](CC=C4C[C@@H](OS(O)(=O)=O)CC[C@@H]43)[C@@H]1CC[C@@H]2O

> <Synonyms>


> <PUBCHEM_CID>


> <Molecular_formula>
C18H28O5S

> <Major_Isotope_Mass>
356.165744996

> <ALogP>
2.4522999999999984

> <Lipinski_Violations>
0

> <Insecticide_Likeness_Violations>
0

> <Post_Em_Herbicide_Likeness_Violations>
0

> <Metabolite_ID>
BTM00008

> <Reaction>
3-OH-Sulfation of sterol

> <Reaction_ID>
BTMR0503

> <Enzyme(s)>
EC 2.8.2.2

> <Biosystem>
HUMAN

> <Precursor_ID>


> <Precursor_SMILES>
C[C@]12CC[C@H]3[C@@H](CC=C4C[C@@H](O)CC[C@@H]43)[C@@H]1CC[C@@H]2O

> <Precursor_InChI>
InChI=1S/C18H28O2/c1-18-9-8-14-13-5-3-12(19)10-11(13)2-4-15(14)16(18)6-7-17(18)20/h2,12-17,19-20H,3-10H2,1H3/t12-,13-,14+,15+,16-,17-,18-/m0/s1

> <Precursor_InChIKey>
VVUQRXPUVKXAIO-XFUVECHXSA-N

> <Precursor_ALogP>


> <Precursor_Major_Isotope_Mass>
276.2089

$$$$
BTM00009
  CDK     09122622082D

 21 24  0  0  1  0  0  0  0  0999 V2000
    2.0572    3.1517    0.0000 C   0  0  0  0  0  0  0  0  0  0  0  0
    1.9000    1.6600    0.0000 C   0  0  2  0  0  0  0  0  0  0  0  0
    0.6000    2.4100    0.0000 C   0  0  0  0  0  0  0  0  0  0  0  0
   -0.7000    1.6600    0.0000 C   0  0  0  0  0  0  0  0  0  0  0  0
   -0.7000    0.1600    0.0000 C   0  0  1  0  0  0  0  0  0  0  0  0
    0.6000   -0.5900    0.0000 C   0  0  1  0  0  0  0  0  0  0  0  0
    0.6000   -2.0900    0.0000 C   0  0  0  0  0  0  0  0  0  0  0  0
   -0.7000   -2.8400    0.0000 C   0  0  0  0  0  0  0  0  0  0  0  0
   -2.0000   -2.0900    0.0000 C   0  0  0  0  0  0  0  0  0  0  0  0
   -3.3000   -2.8400    0.0000 C   0  0  0  0  0  0  0  0  0  0  0  0
   -4.6000   -2.0900    0.0000 C   0  0  1  0  0  0  0  0  0  0  0  0
   -5.8989   -2.8402    0.0000 O   0  0  0  0  0  0  0  0  0  0  0  0
   -4.6000   -0.5900    0.0000 C   0  0  0  0  0  0  0  0  0  0  0  0
   -3.3000    0.1600    0.0000 C   0  0  0  0  0  0  0  0  0  0  0  0
   -2.0000   -0.5900    0.0000 C   0  0  2  0  0  0  0  0  0  0  0  0
    1.9000    0.1600    0.0000 C   0  0  2  0  0  0  0  0  0  0  0  0
    3.3200   -0.3000    0.0000 C   0  0  0  0  0  0  0  0  0  0  0  0
    4.2000    0.9100    0.0000 C   0  0  0  0  0  0  0  0  0  0  0  0
    3.3200    2.1200    0.0000 C   0  0  2  0  0  0  0  0  0  0  0  0
    3.7838    3.5465    0.0000 O   0  0  0  0  0  0  0  0  0  0  0  0
    5.7000    0.9100    0.0000 O   0  0  0  0  0  0  0  0  0  0  0  0
  2  1  1  1  0  0  0
  2  3  1  0  0  0  0
  3  4  1  0  0  0  0
  5  4  1  1  0  0  0
  5  6  1  0  0  0  0
  6  7  1  6  0  0  0
  7  8  1  0  0  0  0
  8  9  2  0  0  0  0
  9 10  1  0  0  0  0
 10 11  1  0  0  0  0
 11 12  1  1  0  0  0
 11 13  1  0  0  0  0
 13 14  1  0  0  0  0
 15 14  1  6  0  0  0
  9 15  1  0  0  0  0
  5 15  1  0  0  0  0
  6 16  1  0  0  0  0
  2 16  1  0  0  0  0
 16 17  1  1  0  0  0
 17 18  1  0  0  0  0
 18 19  1  0  0  0  0
  2 19  1  0  0  0  0
 19 20  1  1  0  0  0
 21 18  1  0  0  0  0
M  END
> <InChI>
InChI=1S/C18H28O3/c1-18-7-6-13-12-5-3-11(19)8-10(12)2-4-14(13)15(18)9-16(20)17(18)21/h2,11-17,19-21H,3-9H2,1H3/t11-,12-,13+,14+,15-,16?,17-,18-/m0/s1

> <InChIKey>
PRWDSNDJXNMVAZ-FPRUMUHKSA-N

> <SMILES>
C[C@]12CC[C@H]3[C@@H](CC=C4C[C@@H](O)CC[C@@H]43)[C@@H]1CC([C@@H]2O)O

> <Synonyms>


> <PUBCHEM_CID>


> <Molecular_formula>
C18H28O3

> <Major_Isotope_Mass>
292.20384475599997

> <ALogP>
2.064700000000001

> <Lipinski_Violations>
0

> <Insecticide_Likeness_Violations>
1

> <Post_Em_Herbicide_Likeness_Violations>
1

> <Metabolite_ID>
BTM00009

> <Reaction>
16-Hydroxylation of sterol

> <Reaction_ID>
BTMR0407

> <Enzyme(s)>
CYP1A2
CYP2A6
CYP2B6
CYP2C8
CYP2C9
CYP2C19
CYP2D6
CYP2E1
CYP3A4

> <Biosystem>
HUMAN

> <Precursor_ID>


> <Precursor_SMILES>
C[C@]12CC[C@H]3[C@@H](CC=C4C[C@@H](O)CC[C@@H]43)[C@@H]1CC[C@@H]2O

> <Precursor_InChI>
InChI=1S/C18H28O2/c1-18-9-8-14-13-5-3-12(19)10-11(13)2-4-15(14)16(18)6-7-17(18)20/h2,12-17,19-20H,3-10H2,1H3/t12-,13-,14+,15+,16-,17-,18-/m0/s1

> <Precursor_InChIKey>
VVUQRXPUVKXAIO-XFUVECHXSA-N

> <Precursor_ALogP>


> <Precursor_Major_Isotope_Mass>
276.2089

$$$$
BTM00010
  CDK     09122622082D

 21 24  0  0  1  0  0  0  0  0999 V2000
    2.6072    3.1917    0.0000 C   0  0  0  0  0  0  0  0  0  0  0  0
    2.4500    1.7000    0.0000 C   0  0  2  0  0  0  0  0  0  0  0  0
    1.1500    2.4500    0.0000 C   0  0  0  0  0  0  0  0  0  0  0  0
   -0.1500    1.7000    0.0000 C   0  0  0  0  0  0  0  0  0  0  0  0
   -0.1500    0.2000    0.0000 C   0  0  1  0  0  0  0  0  0  0  0  0
    1.1500   -0.5500    0.0000 C   0  0  1  0  0  0  0  0  0  0  0  0
    1.1500   -2.0500    0.0000 C   0  0  0  0  0  0  0  0  0  0  0  0
   -0.1500   -2.8000    0.0000 C   0  0  0  0  0  0  0  0  0  0  0  0
   -1.4500   -2.0500    0.0000 C   0  0  0  0  0  0  0  0  0  0  0  0
   -2.7500   -2.8000    0.0000 C   0  0  0  0  0  0  0  0  0  0  0  0
   -4.0500   -2.0500    0.0000 C   0  0  1  0  0  0  0  0  0  0  0  0
   -5.3489   -2.8002    0.0000 O   0  0  0  0  0  0  0  0  0  0  0  0
   -4.0500   -0.5500    0.0000 C   0  0  0  0  0  0  0  0  0  0  0  0
   -2.7500    0.2000    0.0000 C   0  0  0  0  0  0  0  0  0  0  0  0
   -1.4500   -0.5500    0.0000 C   0  0  2  0  0  0  0  0  0  0  0  0
    2.4500    0.2000    0.0000 C   0  0  2  0  0  0  0  0  0  0  0  0
    3.8700   -0.2700    0.0000 C   0  0  0  0  0  0  0  0  0  0  0  0
    4.7600    0.9500    0.0000 C   0  0  0  0  0  0  0  0  0  0  0  0
    3.8700    2.1600    0.0000 C   0  0  2  0  0  0  0  0  0  0  0  0
    4.3300    3.5877    0.0000 O   0  0  0  0  0  0  0  0  0  0  0  0
   -5.3489    0.2002    0.0000 O   0  0  0  0  0  0  0  0  0  0  0  0
  2  1  1  1  0  0  0
  2  3  1  0  0  0  0
  3  4  1  0  0  0  0
  5  4  1  1  0  0  0
  5  6  1  0  0  0  0
  6  7  1  6  0  0  0
  7  8  1  0  0  0  0
  8  9  2  0  0  0  0
  9 10  1  0  0  0  0
 10 11  1  0  0  0  0
 11 12  1  1  0  0  0
 11 13  1  0  0  0  0
 13 14  1  0  0  0  0
 15 14  1  6  0  0  0
  9 15  1  0  0  0  0
  5 15  1  0  0  0  0
  6 16  1  0  0  0  0
  2 16  1  0  0  0  0
 16 17  1  1  0  0  0
 17 18  1  0  0  0  0
 18 19  1  0  0  0  0
  2 19  1  0  0  0  0
 19 20  1  1  0  0  0
 21 13  1  0  0  0  0
M  END
> <InChI>
InChI=1S/C18H28O3/c1-18-7-6-11-12(14(18)4-5-17(18)21)3-2-10-8-15(19)16(20)9-13(10)11/h2,11-17,19-21H,3-9H2,1H3/t11-,12+,13-,14-,15+,16?,17-,18-/m0/s1

> <InChIKey>
CAZBMOAEDJKVKU-HNRJJVKYSA-N

> <SMILES>
C[C@]12CC[C@H]3[C@@H](CC=C4C[C@@H](O)C(C[C@@H]43)O)[C@@H]1CC[C@@H]2O

> <Synonyms>


> <PUBCHEM_CID>


> <Molecular_formula>
C18H28O3

> <Major_Isotope_Mass>
292.20384475599997

> <ALogP>
2.064700000000001

> <Lipinski_Violations>
0

> <Insecticide_Likeness_Violations>
1

> <Post_Em_Herbicide_Likeness_Violations>
1

> <Metabolite_ID>
BTM00010

> <Reaction>
2-Hydroxylation of sterol

> <Reaction_ID>
BTMR0398

> <Enzyme(s)>
CYP1A2
CYP2C19
CYP3A4

> <Biosystem>
HUMAN

> <Precursor_ID>


> <Precursor_SMILES>
C[C@]12CC[C@H]3[C@@H](CC=C4C[C@@H](O)CC[C@@H]43)[C@@H]1CC[C@@H]2O

> <Precursor_InChI>
InChI=1S/C18H28O2/c1-18-9-8-14-13-5-3-12(19)10-11(13)2-4-15(14)16(18)6-7-17(18)20/h2,12-17,19-20H,3-10H2,1H3/t12-,13-,14+,15+,16-,17-,18-/m0/s1

> <Precursor_InChIKey>
VVUQRXPUVKXAIO-XFUVECHXSA-N

> <Precursor_ALogP>


> <Precursor_Major_Isotope_Mass>
276.2089

$$$$
BTM00011
  CDK     09122622082D

 21 24  0  0  1  0  0  0  0  0999 V2000
    2.3787    3.4316    0.0000 C   0  0  0  0  0  0  0  0  0  0  0  0
    2.2200    1.9400    0.0000 C   0  0  2  0  0  0  0  0  0  0  0  0
    0.9200    2.6900    0.0000 C   0  0  0  0  0  0  0  0  0  0  0  0
   -0.3800    1.9400    0.0000 C   0  0  0  0  0  0  0  0  0  0  0  0
   -0.3800    0.4400    0.0000 C   0  0  1  0  0  0  0  0  0  0  0  0
    0.9200   -0.3100    0.0000 C   0  0  1  0  0  0  0  0  0  0  0  0
    0.9200   -1.8100    0.0000 C   0  0  0  0  0  0  0  0  0  0  0  0
   -0.3800   -2.5600    0.0000 C   0  0  0  0  0  0  0  0  0  0  0  0
   -1.6800   -1.8100    0.0000 C   0  0  0  0  0  0  0  0  0  0  0  0
   -2.9800   -2.5600    0.0000 C   0  0  0  0  0  0  0  0  0  0  0  0
   -4.2800   -1.8100    0.0000 C   0  0  1  0  0  0  0  0  0  0  0  0
   -5.5789   -2.5602    0.0000 O   0  0  0  0  0  0  0  0  0  0  0  0
   -4.2800   -0.3100    0.0000 C   0  0  0  0  0  0  0  0  0  0  0  0
   -2.9800    0.4400    0.0000 C   0  0  0  0  0  0  0  0  0  0  0  0
   -1.6800   -0.3100    0.0000 C   0  0  2  0  0  0  0  0  0  0  0  0
    2.2200    0.4400    0.0000 C   0  0  2  0  0  0  0  0  0  0  0  0
    3.6500   -0.0200    0.0000 C   0  0  0  0  0  0  0  0  0  0  0  0
    4.5300    1.1900    0.0000 C   0  0  0  0  0  0  0  0  0  0  0  0
    3.6500    2.4000    0.0000 C   0  0  2  0  0  0  0  0  0  0  0  0
    4.1153    3.8260    0.0000 O   0  0  0  0  0  0  0  0  0  0  0  0
   -2.9800   -4.0600    0.0000 O   0  0  0  0  0  0  0  0  0  0  0  0
  2  1  1  1  0  0  0
  2  3  1  0  0  0  0
  3  4  1  0  0  0  0
  5  4  1  1  0  0  0
  5  6  1  0  0  0  0
  6  7  1  6  0  0  0
  7  8  1  0  0  0  0
  8  9  2  0  0  0  0
  9 10  1  0  0  0  0
 10 11  1  0  0  0  0
 11 12  1  1  0  0  0
 11 13  1  0  0  0  0
 13 14  1  0  0  0  0
 15 14  1  6  0  0  0
  9 15  1  0  0  0  0
  5 15  1  0  0  0  0
  6 16  1  0  0  0  0
  2 16  1  0  0  0  0
 16 17  1  1  0  0  0
 17 18  1  0  0  0  0
 18 19  1  0  0  0  0
  2 19  1  0  0  0  0
 19 20  1  1  0  0  0
 21 10  1  0  0  0  0
M  END
> <InChI>
InChI=1S/C18H28O3/c1-18-9-8-11-10-4-6-15(19)17(21)13(10)3-2-12(11)14(18)5-7-16(18)20/h3,10-12,14-17,19-21H,2,4-9H2,1H3/t10-,11-,12-,14+,15+,16+,17?,18+/m1/s1

> <InChIKey>
BLNLAJKXZRUUMI-YFNKYKBNSA-N

> <SMILES>
C[C@]12CC[C@H]3[C@@H](CC=C4C([C@@H](O)CC[C@@H]43)O)[C@@H]1CC[C@@H]2O

> <Synonyms>


> <PUBCHEM_CID>


> <Molecular_formula>
C18H28O3

> <Major_Isotope_Mass>
292.20384475599997

> <ALogP>
2.1997000000000004

> <Lipinski_Violations>
0

> <Insecticide_Likeness_Violations>
1

> <Post_Em_Herbicide_Likeness_Violations>
1

> <Metabolite_ID>
BTM00011

> <Reaction>
4-Hydroxylation of sterol

> <Reaction_ID>
BTMR0400

> <Enzyme(s)>
CYP1A2
CYP3A4

> <Biosystem>
HUMAN

> <Precursor_ID>


> <Precursor_SMILES>
C[C@]12CC[C@H]3[C@@H](CC=C4C[C@@H](O)CC[C@@H]43)[C@@H]1CC[C@@H]2O

> <Precursor_InChI>
InChI=1S/C18H28O2/c1-18-9-8-14-13-5-3-12(19)10-11(13)2-4-15(14)16(18)6-7-17(18)20/h2,12-17,19-20H,3-10H2,1H3/t12-,13-,14+,15+,16-,17-,18-/m0/s1

> <Precursor_InChIKey>
VVUQRXPUVKXAIO-XFUVECHXSA-N

> <Precursor_ALogP>


> <Precursor_Major_Isotope_Mass>
276.2089

$$$$
BTM00012
  CDK     09122622082D

 21 24  0  0  1  0  0  0  0  0999 V2000
    2.3365    3.1918    0.0000 C   0  0  0  0  0  0  0  0  0  0  0  0
    2.1800    1.7000    0.0000 C   0  0  2  0  0  0  0  0  0  0  0  0
    0.8900    2.4500    0.0000 C   0  0  0  0  0  0  0  0  0  0  0  0
   -0.4100    1.7000    0.0000 C   0  0  0  0  0  0  0  0  0  0  0  0
   -0.4100    0.2000    0.0000 C   0  0  1  0  0  0  0  0  0  0  0  0
    0.8900   -0.5500    0.0000 C   0  0  1  0  0  0  0  0  0  0  0  0
    0.8900   -2.0500    0.0000 C   0  0  0  0  0  0  0  0  0  0  0  0
   -0.4100   -2.8000    0.0000 C   0  0  0  0  0  0  0  0  0  0  0  0
   -1.7100   -2.0500    0.0000 C   0  0  0  0  0  0  0  0  0  0  0  0
   -3.0100   -2.8000    0.0000 C   0  0  0  0  0  0  0  0  0  0  0  0
   -4.3100   -2.0500    0.0000 C   0  0  1  0  0  0  0  0  0  0  0  0
   -5.6089   -2.8002    0.0000 O   0  0  0  0  0  0  0  0  0  0  0  0
   -4.3100   -0.5500    0.0000 C   0  0  0  0  0  0  0  0  0  0  0  0
   -3.0100    0.2000    0.0000 C   0  0  0  0  0  0  0  0  0  0  0  0
   -1.7100   -0.5500    0.0000 C   0  0  2  0  0  0  0  0  0  0  0  0
    2.1800    0.2000    0.0000 C   0  0  2  0  0  0  0  0  0  0  0  0
    3.6100   -0.2600    0.0000 C   0  0  0  0  0  0  0  0  0  0  0  0
    4.4900    0.9500    0.0000 C   0  0  0  0  0  0  0  0  0  0  0  0
    3.6100    2.1700    0.0000 C   0  0  2  0  0  0  0  0  0  0  0  0
    4.0736    3.5966    0.0000 O   0  0  0  0  0  0  0  0  0  0  0  0
    1.1228    4.0733    0.0000 O   0  0  0  0  0  0  0  0  0  0  0  0
  2  1  1  1  0  0  0
  2  3  1  0  0  0  0
  3  4  1  0  0  0  0
  5  4  1  1  0  0  0
  5  6  1  0  0  0  0
  6  7  1  6  0  0  0
  7  8  1  0  0  0  0
  8  9  2  0  0  0  0
  9 10  1  0  0  0  0
 10 11  1  0  0  0  0
 11 12  1  1  0  0  0
 11 13  1  0  0  0  0
 13 14  1  0  0  0  0
 15 14  1  6  0  0  0
  9 15  1  0  0  0  0
  5 15  1  0  0  0  0
  6 16  1  0  0  0  0
  2 16  1  0  0  0  0
 16 17  1  1  0  0  0
 17 18  1  0  0  0  0
 18 19  1  0  0  0  0
  2 19  1  0  0  0  0
 19 20  1  1  0  0  0
 21  1  1  0  0  0  0
M  END
> <InChI>
InChI=1S/C18H28O3/c19-10-18-8-7-14-13-4-2-12(20)9-11(13)1-3-15(14)16(18)5-6-17(18)21/h1,12-17,19-21H,2-10H2/t12-,13-,14+,15+,16-,17-,18+/m0/s1

> <InChIKey>
LOLFWPXLYNODGP-YAZDRDDXSA-N

> <SMILES>
C([C@]12CC[C@H]3[C@@H](CC=C4C[C@@H](O)CC[C@@H]43)[C@@H]1CC[C@@H]2O)O

> <Synonyms>


> <PUBCHEM_CID>


> <Molecular_formula>
C18H28O3

> <Major_Isotope_Mass>
292.20384475599997

> <ALogP>
1.9408999999999996

> <Lipinski_Violations>
0

> <Insecticide_Likeness_Violations>
1

> <Post_Em_Herbicide_Likeness_Violations>
1

> <Metabolite_ID>
BTM00012

> <Reaction>
Hydroxylation of methyl carbon adjacent to aliphatic ring

> <Reaction_ID>
BTMR0054

> <Enzyme(s)>
CYP2B6
CYP2C8
CYP2C9
CYP2C19
CYP2D6
CYP3A4

> <Biosystem>
HUMAN

> <Precursor_ID>


> <Precursor_SMILES>
C[C@]12CC[C@H]3[C@@H](CC=C4C[C@@H](O)CC[C@@H]43)[C@@H]1CC[C@@H]2O

> <Precursor_InChI>
InChI=1S/C18H28O2/c1-18-9-8-14-13-5-3-12(19)10-11(13)2-4-15(14)16(18)6-7-17(18)20/h2,12-17,19-20H,3-10H2,1H3/t12-,13-,14+,15+,16-,17-,18-/m0/s1

> <Precursor_InChIKey>
VVUQRXPUVKXAIO-XFUVECHXSA-N

> <Precursor_ALogP>


> <Precursor_Major_Isotope_Mass>
276.2089

$$$$
