BTM00001
  CDK     09122622072D

 21 24  0  0  1  0  0  0  0  0999 V2000
   -1.6789    2.6902    0.0000 C   0  0  0  0  0  0  0  0  0  0  0  0
   -0.3800    1.9400    0.0000 C   0  0  1  0  0  0  0  0  0  0  0  0
    0.9200    2.6900    0.0000 C   0  0  0  0  0  0  0  0  0  0  0  0
    2.2200    1.9400    0.0000 C   0  0  2  0  0  0  0  0  0  0  0  0
    2.3787    3.4316    0.0000 C   0  0  0  0  0  0  0  0  0  0  0  0
    3.6500    2.4000    0.0000 C   0  0  1  0  0  0  0  0  0  0  0  0
    4.1153    3.8260    0.0000 O   0  0  0  0  0  0  0  0  0  0  0  0
    4.5300    1.1900    0.0000 C   0  0  0  0  0  0  0  0  0  0  0  0
    3.6500   -0.0200    0.0000 C   0  0  0  0  0  0  0  0  0  0  0  0
    2.2200    0.4400    0.0000 C   0  0  1  0  0  0  0  0  0  0  0  0
    0.9200   -0.3100    0.0000 C   0  0  2  0  0  0  0  0  0  0  0  0
    0.9200   -1.8100    0.0000 C   0  0  0  0  0  0  0  0  0  0  0  0
   -0.3800   -2.5600    0.0000 C   0  0  0  0  0  0  0  0  0  0  0  0
   -1.6800   -1.8100    0.0000 C   0  0  0  0  0  0  0  0  0  0  0  0
   -2.9800   -2.5600    0.0000 C   0  0  0  0  0  0  0  0  0  0  0  0
   -4.2800   -1.8100    0.0000 C   0  0  0  0  0  0  0  0  0  0  0  0
   -5.5789   -2.5602    0.0000 O   0  0  0  0  0  0  0  0  0  0  0  0
   -4.2800   -0.3100    0.0000 C   0  0  0  0  0  0  0  0  0  0  0  0
   -2.9800    0.4400    0.0000 C   0  0  0  0  0  0  0  0  0  0  0  0
   -1.6800   -0.3100    0.0000 C   0  0  2  0  0  0  0  0  0  0  0  0
   -0.3800    0.4400    0.0000 C   0  0  1  0  0  0  0  0  0  0  0  0
  2  1  1  1  0  0  0
  2  3  1  0  0  0  0
  3  4  1  0  0  0  0
  4  5  1  1  0  0  0
  4  6  1  0  0  0  0
  6  7  1  1  0  0  0
  6  8  1  0  0  0  0
  8  9  1  0  0  0  0
 10  9  1  1  0  0  0
  4 10  1  0  0  0  0
 10 11  1  0  0  0  0
 11 12  1  6  0  0  0
 12 13  1  0  0  0  0
 13 14  1  0  0  0  0
 14 15  2  0  0  0  0
 15 16  1  0  0  0  0
 16 17  1  0  0  0  0
 16 18  1  0  0  0  0
 18 19  1  0  0  0  0
 20 19  1  6  0  0  0
 14 20  1  0  0  0  0
 20 21  1  0  0  0  0
 11 21  1  0  0  0  0
 21  2  1  1  0  0  0
M  END
> <InChI>
InChI=1S/C19H30O2/c1-11-10-19(2)16(7-8-17(19)21)15-5-3-12-9-13(20)4-6-14(12)18(11)15/h9,11,13-18,20-21H,3-8,10H2,1-2H3/t11-,13?,14-,15-,16-,17-,18+,19-/m0/s1

> <InChIKey>
HIYSUMOHRSFNJH-ITURUABKSA-N

> <SMILES>
C[C@H]1C[C@]2(C)[C@@H](O)CC[C@H]2[C@@H]3CCC4=CC(O)CC[C@@H]4[C@H]31

> <Synonyms>


> <PUBCHEM_CID>


> <Molecular_formula>
C19H30O2

> <Major_Isotope_Mass>
290.2245802

> <ALogP>
3.418399999999999

> <Lipinski_Violations>
0

> <Insecticide_Likeness_Violations>
0

> <Post_Em_Herbicide_Likeness_Violations>
0

> <Metabolite_ID>
BTM00001

> <Reaction>
Reduction of carbonyl

> <Reaction_ID>
BTMR0368

> <Enzyme(s)>
EC 1.1.1.184

> <Biosystem>
HUMAN

> <Precursor_ID>


> <Precursor_SMILES>
C[C@H]1C[C@]2(C)[C@@H](O)CC[C@H]2[C@@H]3CCC4=CC(=O)CC[C@@H]4[C@H]31

> <Precursor_InChI>
InChI=1S/C19H28O2/c1-11-10-19(2)16(7-8-17(19)21)15-5-3-12-9-13(20)4-6-14(12)18(11)15/h9,11,14-18,21H,3-8,10H2,1-2H3/t11-,14-,15-,16-,17-,18+,19-/m0/s1

> <Precursor_InChIKey>
QCNNHARIRLYUAB-CTPXPINYSA-N

> <Precursor_ALogP>


> <Precursor_Major_Isotope_Mass>
288.2089

$$$$
BTM00002
  CDK     09122622072D

 21 24  0  0  1  0  0  0  0  0999 V2000
   -1.6789    2.6902    0.0000 C   0  0  0  0  0  0  0  0  0  0  0  0
   -0.3800    1.9400    0.0000 C   0  0  1  0  0  0  0  0  0  0  0  0
    0.9200    2.6900    0.0000 C   0  0  0  0  0  0  0  0  0  0  0  0
    2.2200    1.9400    0.0000 C   0  0  2  0  0  0  0  0  0  0  0  0
    2.3787    3.4316    0.0000 C   0  0  0  0  0  0  0  0  0  0  0  0
    3.6500    2.4000    0.0000 C   0  0  0  0  0  0  0  0  0  0  0  0
    4.1153    3.8260    0.0000 O   0  0  0  0  0  0  0  0  0  0  0  0
    4.5300    1.1900    0.0000 C   0  0  0  0  0  0  0  0  0  0  0  0
    3.6500   -0.0200    0.0000 C   0  0  0  0  0  0  0  0  0  0  0  0
    2.2200    0.4400    0.0000 C   0  0  1  0  0  0  0  0  0  0  0  0
    0.9200   -0.3100    0.0000 C   0  0  2  0  0  0  0  0  0  0  0  0
    0.9200   -1.8100    0.0000 C   0  0  0  0  0  0  0  0  0  0  0  0
   -0.3800   -2.5600    0.0000 C   0  0  0  0  0  0  0  0  0  0  0  0
   -1.6800   -1.8100    0.0000 C   0  0  0  0  0  0  0  0  0  0  0  0
   -2.9800   -2.5600    0.0000 C   0  0  0  0  0  0  0  0  0  0  0  0
   -4.2800   -1.8100    0.0000 C   0  0  0  0  0  0  0  0  0  0  0  0
   -5.5789   -2.5602    0.0000 O   0  0  0  0  0  0  0  0  0  0  0  0
   -4.2800   -0.3100    0.0000 C   0  0  0  0  0  0  0  0  0  0  0  0
   -2.9800    0.4400    0.0000 C   0  0  0  0  0  0  0  0  0  0  0  0
   -1.6800   -0.3100    0.0000 C   0  0  2  0  0  0  0  0  0  0  0  0
   -0.3800    0.4400    0.0000 C   0  0  1  0  0  0  0  0  0  0  0  0
  2  1  1  1  0  0  0
  2  3  1  0  0  0  0
  3  4  1  0  0  0  0
  4  5  1  1  0  0  0
  4  6  1  0  0  0  0
  6  7  2  0  0  0  0
  6  8  1  0  0  0  0
  8  9  1  0  0  0  0
 10  9  1  1  0  0  0
  4 10  1  0  0  0  0
 10 11  1  0  0  0  0
 11 12  1  6  0  0  0
 12 13  1  0  0  0  0
 13 14  1  0  0  0  0
 14 15  2  0  0  0  0
 15 16  1  0  0  0  0
 16 17  2  0  0  0  0
 16 18  1  0  0  0  0
 18 19  1  0  0  0  0
 20 19  1  6  0  0  0
 14 20  1  0  0  0  0
 20 21  1  0  0  0  0
 11 21  1  0  0  0  0
 21  2  1  1  0  0  0
M  END
> <InChI>
InChI=1S/C19H26O2/c1-11-10-19(2)16(7-8-17(19)21)15-5-3-12-9-13(20)4-6-14(12)18(11)15/h9,11,14-16,18H,3-8,10H2,1-2H3/t11-,14-,15-,16-,18+,19-/m0/s1

> <InChIKey>
LXFWBEVUCXHEOF-PTXABJOTSA-N

> <SMILES>
C[C@H]1C[C@]2(C)C(=O)CC[C@H]2[C@@H]3CCC4=CC(=O)CC[C@@H]4[C@H]31

> <Synonyms>


> <PUBCHEM_CID>


> <Molecular_formula>
C19H26O2

> <Major_Isotope_Mass>
286.193280072

> <ALogP>
3.3394

> <Lipinski_Violations>
0

> <Insecticide_Likeness_Violations>
0

> <Post_Em_Herbicide_Likeness_Violations>
0

> <Metabolite_ID>
BTM00002

> <Reaction>
Dehydrogenation of 17-beta-hydroxysteroid

> <Reaction_ID>
BTMR0370

> <Enzyme(s)>
EC 1.1.1.239

> <Biosystem>
HUMAN

> <Precursor_ID>


> <Precursor_SMILES>
C[C@H]1C[C@]2(C)[C@@H](O)CC[C@H]2[C@@H]3CCC4=CC(=O)CC[C@@H]4[C@H]31

> <Precursor_InChI>
InChI=1S/C19H28O2/c1-11-10-19(2)16(7-8-17(19)21)15-5-3-12-9-13(20)4-6-14(12)18(11)15/h9,11,14-18,21H,3-8,10H2,1-2H3/t11-,14-,15-,16-,17-,18+,19-/m0/s1

> <Precursor_InChIKey>
QCNNHARIRLYUAB-CTPXPINYSA-N

> <Precursor_ALogP>


> <Precursor_Major_Isotope_Mass>
288.2089

$$$$
BTM00003
  CDK     09122622072D

 33 37  0  0  1  0  0  0  0  0999 V2000
   -1.6789    2.6902    0.0000 C   0  0  0  0  0  0  0  0  0  0  0  0
   -0.3800    1.9400    0.0000 C   0  0  1  0  0  0  0  0  0  0  0  0
    0.9200    2.6900    0.0000 C   0  0  0  0  0  0  0  0  0  0  0  0
    2.2200    1.9400    0.0000 C   0  0  2  0  0  0  0  0  0  0  0  0
    2.3787    3.4316    0.0000 C   0  0  0  0  0  0  0  0  0  0  0  0
    3.6500    2.4000    0.0000 C   0  0  1  0  0  0  0  0  0  0  0  0
    4.1153    3.8260    0.0000 O   0  0  0  0  0  0  0  0  0  0  0  0
    4.5300    1.1900    0.0000 C   0  0  0  0  0  0  0  0  0  0  0  0
    3.6500   -0.0200    0.0000 C   0  0  0  0  0  0  0  0  0  0  0  0
    2.2200    0.4400    0.0000 C   0  0  1  0  0  0  0  0  0  0  0  0
    0.9200   -0.3100    0.0000 C   0  0  2  0  0  0  0  0  0  0  0  0
    0.9200   -1.8100    0.0000 C   0  0  0  0  0  0  0  0  0  0  0  0
   -0.3800   -2.5600    0.0000 C   0  0  0  0  0  0  0  0  0  0  0  0
   -1.6800   -1.8100    0.0000 C   0  0  0  0  0  0  0  0  0  0  0  0
   -2.9800   -2.5600    0.0000 C   0  0  0  0  0  0  0  0  0  0  0  0
   -4.2800   -1.8100    0.0000 C   0  0  0  0  0  0  0  0  0  0  0  0
   -5.5789   -2.5602    0.0000 O   0  0  0  0  0  0  0  0  0  0  0  0
   -4.2800   -0.3100    0.0000 C   0  0  0  0  0  0  0  0  0  0  0  0
   -2.9800    0.4400    0.0000 C   0  0  0  0  0  0  0  0  0  0  0  0
   -1.6800   -0.3100    0.0000 C   0  0  2  0  0  0  0  0  0  0  0  0
   -0.3800    0.4400    0.0000 C   0  0  1  0  0  0  0  0  0  0  0  0
    5.0521    6.6710    0.0000 O   0  0  0  0  0  0  0  0  0  0  0  0
    6.0499    5.5510    0.0000 C   0  0  0  0  0  0  0  0  0  0  0  0
    7.5416    5.8589    0.0000 C   0  0  0  0  0  0  0  0  0  0  0  0
    8.0166    7.2817    0.0000 O   0  0  0  0  0  0  0  0  0  0  0  0
    8.5379    4.7297    0.0000 C   0  0  0  0  0  0  0  0  0  0  0  0
   10.0074    5.0307    0.0000 O   0  0  0  0  0  0  0  0  0  0  0  0
    8.0708    3.3148    0.0000 C   0  0  0  0  0  0  0  0  0  0  0  0
    6.6013    3.0101    0.0000 O   0  0  0  0  0  0  0  0  0  0  0  0
    5.5829    4.1361    0.0000 C   0  0  0  0  0  0  0  0  0  0  0  0
    9.0691    2.1952    0.0000 C   0  0  0  0  0  0  0  0  0  0  0  0
   10.5378    2.5000    0.0000 O   0  0  0  0  0  0  0  0  0  0  0  0
    8.5987    0.7709    0.0000 O   0  0  0  0  0  0  0  0  0  0  0  0
  2  1  1  1  0  0  0
  2  3  1  0  0  0  0
  3  4  1  0  0  0  0
  4  5  1  1  0  0  0
  4  6  1  0  0  0  0
  6  7  1  1  0  0  0
  6  8  1  0  0  0  0
  8  9  1  0  0  0  0
 10  9  1  1  0  0  0
  4 10  1  0  0  0  0
 10 11  1  0  0  0  0
 11 12  1  6  0  0  0
 12 13  1  0  0  0  0
 13 14  1  0  0  0  0
 14 15  2  0  0  0  0
 15 16  1  0  0  0  0
 16 17  2  0  0  0  0
 16 18  1  0  0  0  0
 18 19  1  0  0  0  0
 20 19  1  6  0  0  0
 14 20  1  0  0  0  0
 20 21  1  0  0  0  0
 11 21  1  0  0  0  0
 21  2  1  1  0  0  0
 22 23  1  0  0  0  0
 23 24  1  0  0  0  0
 24 25  1  0  0  0  0
 24 26  1  0  0  0  0
 26 27  1  0  0  0  0
 26 28  1  0  0  0  0
 28 29  1  0  0  0  0
 29 30  1  0  0  0  0
 23 30  1  0  0  0  0
 30  7  1  0  0  0  0
 28 31  1  0  0  0  0
 31 32  1  0  0  0  0
 31 33  2  0  0  0  0
M  END
> <InChI>
InChI=1S/C25H36O8/c1-11-10-25(2)16(15-5-3-12-9-13(26)4-6-14(12)18(11)15)7-8-17(25)32-24-21(29)19(27)20(28)22(33-24)23(30)31/h9,11,14-22,24,27-29H,3-8,10H2,1-2H3,(H,30,31)/t11-,14-,15-,16-,17-,18+,19?,20?,21?,22?,24?,25-/m0/s1

> <InChIKey>
UYGQPLMNFKMTQY-ZNKGLDAOSA-N

> <SMILES>
C[C@H]1C[C@]2(C)[C@@H](OC3OC(C(C(C3O)O)O)C(O)=O)CC[C@H]2[C@@H]4CCC5=CC(=O)CC[C@@H]5[C@H]41

> <Synonyms>


> <PUBCHEM_CID>


> <Molecular_formula>
C25H36O8

> <Major_Isotope_Mass>
464.241018112

> <ALogP>
1.840899999999998

> <Lipinski_Violations>
0

> <Insecticide_Likeness_Violations>
1

> <Post_Em_Herbicide_Likeness_Violations>
1

> <Metabolite_ID>
BTM00003

> <Reaction>
17-OH-Glucuronidation of sterol

> <Reaction_ID>
BTMR0163

> <Enzyme(s)>
EC 2.4.1.17

> <Biosystem>
HUMAN

> <Precursor_ID>


> <Precursor_SMILES>
C[C@H]1C[C@]2(C)[C@@H](O)CC[C@H]2[C@@H]3CCC4=CC(=O)CC[C@@H]4[C@H]31

> <Precursor_InChI>
InChI=1S/C19H28O2/c1-11-10-19(2)16(7-8-17(19)21)15-5-3-12-9-13(20)4-6-14(12)18(11)15/h9,11,14-18,21H,3-8,10H2,1-2H3/t11-,14-,15-,16-,17-,18+,19-/m0/s1

> <Precursor_InChIKey>
QCNNHARIRLYUAB-CTPXPINYSA-N

> <Precursor_ALogP>


> <Precursor_Major_Isotope_Mass>
288.2089

$$$$
BTM00004
  CDK     09122622072D

 22 25  0  0  1  0  0  0  0  0999 V2000
   -1.6789    2.6902    0.0000 C   0  0  0  0  0  0  0  0  0  0  0  0
   -0.3800    1.9400    0.0000 C   0  0  1  0  0  0  0  0  0  0  0  0
    0.9200    2.6900    0.0000 C   0  0  0  0  0  0  0  0  0  0  0  0
    2.2200    1.9400    0.0000 C   0  0  2  0  0  0  0  0  0  0  0  0
    2.3787    3.4316    0.0000 C   0  0  0  0  0  0  0  0  0  0  0  0
    3.6500    2.4000    0.0000 C   0  0  1  0  0  0  0  0  0  0  0  0
    4.1153    3.8260    0.0000 O   0  0  0  0  0  0  0  0  0  0  0  0
    4.5300    1.1900    0.0000 C   0  0  0  0  0  0  0  0  0  0  0  0
    3.6500   -0.0200    0.0000 C   0  0  0  0  0  0  0  0  0  0  0  0
    2.2200    0.4400    0.0000 C   0  0  1  0  0  0  0  0  0  0  0  0
    0.9200   -0.3100    0.0000 C   0  0  2  0  0  0  0  0  0  0  0  0
    0.9200   -1.8100    0.0000 C   0  0  0  0  0  0  0  0  0  0  0  0
   -0.3800   -2.5600    0.0000 C   0  0  0  0  0  0  0  0  0  0  0  0
   -1.6800   -1.8100    0.0000 C   0  0  0  0  0  0  0  0  0  0  0  0
   -2.9800   -2.5600    0.0000 C   0  0  0  0  0  0  0  0  0  0  0  0
   -4.2800   -1.8100    0.0000 C   0  0  0  0  0  0  0  0  0  0  0  0
   -5.5789   -2.5602    0.0000 O   0  0  0  0  0  0  0  0  0  0  0  0
   -4.2800   -0.3100    0.0000 C   0  0  0  0  0  0  0  0  0  0  0  0
   -2.9800    0.4400    0.0000 C   0  0  0  0  0  0  0  0  0  0  0  0
   -1.6800   -0.3100    0.0000 C   0  0  2  0  0  0  0  0  0  0  0  0
   -0.3800    0.4400    0.0000 C   0  0  1  0  0  0  0  0  0  0  0  0
    6.0300    1.1900    0.0000 O   0  0  0  0  0  0  0  0  0  0  0  0
  2  1  1  1  0  0  0
  2  3  1  0  0  0  0
  3  4  1  0  0  0  0
  4  5  1  1  0  0  0
  4  6  1  0  0  0  0
  6  7  1  1  0  0  0
  6  8  1  0  0  0  0
  8  9  1  0  0  0  0
 10  9  1  1  0  0  0
  4 10  1  0  0  0  0
 10 11  1  0  0  0  0
 11 12  1  6  0  0  0
 12 13  1  0  0  0  0
 13 14  1  0  0  0  0
 14 15  2  0  0  0  0
 15 16  1  0  0  0  0
 16 17  2  0  0  0  0
 16 18  1  0  0  0  0
 18 19  1  0  0  0  0
 20 19  1  6  0  0  0
 14 20  1  0  0  0  0
 20 21  1  0  0  0  0
 11 21  1  0  0  0  0
 21  2  1  1  0  0  0
 22  8  1  0  0  0  0
M  END
> <InChI>
InChI=1S/C19H28O3/c1-10-9-19(2)15(8-16(21)18(19)22)14-5-3-11-7-12(20)4-6-13(11)17(10)14/h7,10,13-18,21-22H,3-6,8-9H2,1-2H3/t10-,13-,14-,15-,16?,17+,18-,19-/m0/s1

> <InChIKey>
SLXPASVRDVHBAI-ZAROBXRQSA-N

> <SMILES>
C[C@H]1C[C@]2(C)[C@@H](O)C(C[C@H]2[C@@H]3CCC4=CC(=O)CC[C@@H]4[C@H]31)O

> <Synonyms>


> <PUBCHEM_CID>


> <Molecular_formula>
C19H28O3

> <Major_Isotope_Mass>
304.20384475599997

> <ALogP>
2.4119999999999955

> <Lipinski_Violations>
0

> <Insecticide_Likeness_Violations>
0

> <Post_Em_Herbicide_Likeness_Violations>
0

> <Metabolite_ID>
BTM00004

> <Reaction>
16-Hydroxylation of sterol

> <Reaction_ID>
BTMR0407

> <Enzyme(s)>
CYP1A2
CYP2A6
CYP2B6
CYP2C8
CYP2C9
CYP2C19
CYP2D6
CYP2E1
CYP3A4

> <Biosystem>
HUMAN

> <Precursor_ID>


> <Precursor_SMILES>
C[C@H]1C[C@]2(C)[C@@H](O)CC[C@H]2[C@@H]3CCC4=CC(=O)CC[C@@H]4[C@H]31

> <Precursor_InChI>
InChI=1S/C19H28O2/c1-11-10-19(2)16(7-8-17(19)21)15-5-3-12-9-13(20)4-6-14(12)18(11)15/h9,11,14-18,21H,3-8,10H2,1-2H3/t11-,14-,15-,16-,17-,18+,19-/m0/s1

> <Precursor_InChIKey>
QCNNHARIRLYUAB-CTPXPINYSA-N

> <Precursor_ALogP>


> <Precursor_Major_Isotope_Mass>
288.2089

$$$$
BTM00005
  CDK     09122622072D

 22 25  0  0  1  0  0  0  0  0999 V2000
   -1.6789    2.6902    0.0000 C   0  0  0  0  0  0  0  0  0  0  0  0
   -0.3800    1.9400    0.0000 C   0  0  1  0  0  0  0  0  0  0  0  0
    0.9200    2.6900    0.0000 C   0  0  0  0  0  0  0  0  0  0  0  0
    2.2200    1.9400    0.0000 C   0  0  2  0  0  0  0  0  0  0  0  0
    2.3787    3.4316    0.0000 C   0  0  0  0  0  0  0  0  0  0  0  0
    3.6500    2.4000    0.0000 C   0  0  1  0  0  0  0  0  0  0  0  0
    4.1153    3.8260    0.0000 O   0  0  0  0  0  0  0  0  0  0  0  0
    4.5300    1.1900    0.0000 C   0  0  0  0  0  0  0  0  0  0  0  0
    3.6500   -0.0200    0.0000 C   0  0  0  0  0  0  0  0  0  0  0  0
    2.2200    0.4400    0.0000 C   0  0  1  0  0  0  0  0  0  0  0  0
    0.9200   -0.3100    0.0000 C   0  0  2  0  0  0  0  0  0  0  0  0
    0.9200   -1.8100    0.0000 C   0  0  0  0  0  0  0  0  0  0  0  0
   -0.3800   -2.5600    0.0000 C   0  0  0  0  0  0  0  0  0  0  0  0
   -1.6800   -1.8100    0.0000 C   0  0  0  0  0  0  0  0  0  0  0  0
   -2.9800   -2.5600    0.0000 C   0  0  0  0  0  0  0  0  0  0  0  0
   -4.2800   -1.8100    0.0000 C   0  0  0  0  0  0  0  0  0  0  0  0
   -5.5789   -2.5602    0.0000 O   0  0  0  0  0  0  0  0  0  0  0  0
   -4.2800   -0.3100    0.0000 C   0  0  0  0  0  0  0  0  0  0  0  0
   -2.9800    0.4400    0.0000 C   0  0  0  0  0  0  0  0  0  0  0  0
   -1.6800   -0.3100    0.0000 C   0  0  2  0  0  0  0  0  0  0  0  0
   -0.3800    0.4400    0.0000 C   0  0  1  0  0  0  0  0  0  0  0  0
   -5.5789    0.4402    0.0000 O   0  0  0  0  0  0  0  0  0  0  0  0
  2  1  1  1  0  0  0
  2  3  1  0  0  0  0
  3  4  1  0  0  0  0
  4  5  1  1  0  0  0
  4  6  1  0  0  0  0
  6  7  1  1  0  0  0
  6  8  1  0  0  0  0
  8  9  1  0  0  0  0
 10  9  1  1  0  0  0
  4 10  1  0  0  0  0
 10 11  1  0  0  0  0
 11 12  1  6  0  0  0
 12 13  1  0  0  0  0
 13 14  1  0  0  0  0
 14 15  2  0  0  0  0
 15 16  1  0  0  0  0
 16 17  2  0  0  0  0
 16 18  1  0  0  0  0
 18 19  1  0  0  0  0
 20 19  1  6  0  0  0
 14 20  1  0  0  0  0
 20 21  1  0  0  0  0
 11 21  1  0  0  0  0
 21  2  1  1  0  0  0
 22 18  1  0  0  0  0
M  END
> <InChI>
InChI=1S/C19H28O3/c1-10-9-19(2)14(5-6-17(19)22)12-4-3-11-7-15(20)16(21)8-13(11)18(10)12/h7,10,12-14,16-18,21-22H,3-6,8-9H2,1-2H3/t10-,12-,13-,14-,16?,17-,18-,19-/m0/s1

> <InChIKey>
PQGVPYDFRZDUOE-FMYKAFMNSA-N

> <SMILES>
C[C@H]1C[C@]2(C)[C@@H](O)CC[C@H]2[C@@H]3CCC4=CC(=O)C(C[C@@H]4[C@H]31)O

> <Synonyms>


> <PUBCHEM_CID>


> <Molecular_formula>
C19H28O3

> <Major_Isotope_Mass>
304.20384475599997

> <ALogP>
2.698399999999996

> <Lipinski_Violations>
0

> <Insecticide_Likeness_Violations>
0

> <Post_Em_Herbicide_Likeness_Violations>
0

> <Metabolite_ID>
BTM00005

> <Reaction>
2-Hydroxylation of sterol

> <Reaction_ID>
BTMR0398

> <Enzyme(s)>
CYP1A2
CYP2C19
CYP3A4

> <Biosystem>
HUMAN

> <Precursor_ID>


> <Precursor_SMILES>
C[C@H]1C[C@]2(C)[C@@H](O)CC[C@H]2[C@@H]3CCC4=CC(=O)CC[C@@H]4[C@H]31

> <Precursor_InChI>
InChI=1S/C19H28O2/c1-11-10-19(2)16(7-8-17(19)21)15-5-3-12-9-13(20)4-6-14(12)18(11)15/h9,11,14-18,21H,3-8,10H2,1-2H3/t11-,14-,15-,16-,17-,18+,19-/m0/s1

> <Precursor_InChIKey>
QCNNHARIRLYUAB-CTPXPINYSA-N

> <Precursor_ALogP>


> <Precursor_Major_Isotope_Mass>
288.2089

$$$$
BTM00006
  CDK     09122622072D

 22 25  0  0  1  0  0  0  0  0999 V2000
   -1.6789    2.6902    0.0000 C   0  0  0  0  0  0  0  0  0  0  0  0
   -0.3800    1.9400    0.0000 C   0  0  1  0  0  0  0  0  0  0  0  0
    0.9200    2.6900    0.0000 C   0  0  0  0  0  0  0  0  0  0  0  0
    2.2200    1.9400    0.0000 C   0  0  2  0  0  0  0  0  0  0  0  0
    2.3787    3.4316    0.0000 C   0  0  0  0  0  0  0  0  0  0  0  0
    3.6500    2.4000    0.0000 C   0  0  1  0  0  0  0  0  0  0  0  0
    4.1153    3.8260    0.0000 O   0  0  0  0  0  0  0  0  0  0  0  0
    4.5300    1.1900    0.0000 C   0  0  0  0  0  0  0  0  0  0  0  0
    3.6500   -0.0200    0.0000 C   0  0  0  0  0  0  0  0  0  0  0  0
    2.2200    0.4400    0.0000 C   0  0  1  0  0  0  0  0  0  0  0  0
    0.9200   -0.3100    0.0000 C   0  0  2  0  0  0  0  0  0  0  0  0
    0.9200   -1.8100    0.0000 C   0  0  0  0  0  0  0  0  0  0  0  0
   -0.3800   -2.5600    0.0000 C   0  0  0  0  0  0  0  0  0  0  0  0
   -1.6800   -1.8100    0.0000 C   0  0  0  0  0  0  0  0  0  0  0  0
   -2.9800   -2.5600    0.0000 C   0  0  0  0  0  0  0  0  0  0  0  0
   -4.2800   -1.8100    0.0000 C   0  0  0  0  0  0  0  0  0  0  0  0
   -5.5789   -2.5602    0.0000 O   0  0  0  0  0  0  0  0  0  0  0  0
   -4.2800   -0.3100    0.0000 C   0  0  0  0  0  0  0  0  0  0  0  0
   -2.9800    0.4400    0.0000 C   0  0  0  0  0  0  0  0  0  0  0  0
   -1.6800   -0.3100    0.0000 C   0  0  2  0  0  0  0  0  0  0  0  0
   -0.3800    0.4400    0.0000 C   0  0  1  0  0  0  0  0  0  0  0  0
   -2.9800   -4.0600    0.0000 O   0  0  0  0  0  0  0  0  0  0  0  0
  2  1  1  1  0  0  0
  2  3  1  0  0  0  0
  3  4  1  0  0  0  0
  4  5  1  1  0  0  0
  4  6  1  0  0  0  0
  6  7  1  1  0  0  0
  6  8  1  0  0  0  0
  8  9  1  0  0  0  0
 10  9  1  1  0  0  0
  4 10  1  0  0  0  0
 10 11  1  0  0  0  0
 11 12  1  6  0  0  0
 12 13  1  0  0  0  0
 13 14  1  0  0  0  0
 14 15  2  0  0  0  0
 15 16  1  0  0  0  0
 16 17  2  0  0  0  0
 16 18  1  0  0  0  0
 18 19  1  0  0  0  0
 20 19  1  6  0  0  0
 14 20  1  0  0  0  0
 20 21  1  0  0  0  0
 11 21  1  0  0  0  0
 21  2  1  1  0  0  0
 22 15  1  0  0  0  0
M  END
> <InChI>
InChI=1S/C19H28O3/c1-10-9-19(2)14(6-8-16(19)21)13-4-3-12-11(17(10)13)5-7-15(20)18(12)22/h10-11,13-14,16-17,21-22H,3-9H2,1-2H3/t10-,11-,13-,14-,16-,17+,19-/m0/s1

> <InChIKey>
VWYYWTWVWRKYCR-MBMGDETASA-N

> <SMILES>
C[C@H]1C[C@]2(C)[C@@H](O)CC[C@H]2[C@@H]3CCC4=C(C(=O)CC[C@@H]4[C@H]31)O

> <Synonyms>


> <PUBCHEM_CID>


> <Molecular_formula>
C19H28O3

> <Major_Isotope_Mass>
304.20384475599997

> <ALogP>
2.8158

> <Lipinski_Violations>
0

> <Insecticide_Likeness_Violations>
0

> <Post_Em_Herbicide_Likeness_Violations>
0

> <Metabolite_ID>
BTM00006

> <Reaction>
4-Hydroxylation of sterol

> <Reaction_ID>
BTMR0400

> <Enzyme(s)>
CYP1A2
CYP3A4

> <Biosystem>
HUMAN

> <Precursor_ID>


> <Precursor_SMILES>
C[C@H]1C[C@]2(C)[C@@H](O)CC[C@H]2[C@@H]3CCC4=CC(=O)CC[C@@H]4[C@H]31

> <Precursor_InChI>
InChI=1S/C19H28O2/c1-11-10-19(2)16(7-8-17(19)21)15-5-3-12-9-13(20)4-6-14(12)18(11)15/h9,11,14-18,21H,3-8,10H2,1-2H3/t11-,14-,15-,16-,17-,18+,19-/m0/s1

> <Precursor_InChIKey>
QCNNHARIRLYUAB-CTPXPINYSA-N

> <Precursor_ALogP>


> <Precursor_Major_Isotope_Mass>
288.2089

$$$$
BTM00007
  CDK     09122622072D

 22 25  0  0  1  0  0  0  0  0999 V2000
   -1.6789    2.6902    0.0000 C   0  0  0  0  0  0  0  0  0  0  0  0
   -0.3800    1.9400    0.0000 C   0  0  1  0  0  0  0  0  0  0  0  0
    0.9200    2.6900    0.0000 C   0  0  0  0  0  0  0  0  0  0  0  0
    2.2200    1.9400    0.0000 C   0  0  2  0  0  0  0  0  0  0  0  0
    2.3787    3.4316    0.0000 C   0  0  0  0  0  0  0  0  0  0  0  0
    3.6500    2.4000    0.0000 C   0  0  1  0  0  0  0  0  0  0  0  0
    4.1153    3.8260    0.0000 O   0  0  0  0  0  0  0  0  0  0  0  0
    4.5300    1.1900    0.0000 C   0  0  0  0  0  0  0  0  0  0  0  0
    3.6500   -0.0200    0.0000 C   0  0  0  0  0  0  0  0  0  0  0  0
    2.2200    0.4400    0.0000 C   0  0  1  0  0  0  0  0  0  0  0  0
    0.9200   -0.3100    0.0000 C   0  0  2  0  0  0  0  0  0  0  0  0
    0.9200   -1.8100    0.0000 C   0  0  0  0  0  0  0  0  0  0  0  0
   -0.3800   -2.5600    0.0000 C   0  0  0  0  0  0  0  0  0  0  0  0
   -1.6800   -1.8100    0.0000 C   0  0  0  0  0  0  0  0  0  0  0  0
   -2.9800   -2.5600    0.0000 C   0  0  0  0  0  0  0  0  0  0  0  0
   -4.2800   -1.8100    0.0000 C   0  0  0  0  0  0  0  0  0  0  0  0
   -5.5789   -2.5602    0.0000 O   0  0  0  0  0  0  0  0  0  0  0  0
   -4.2800   -0.3100    0.0000 C   0  0  0  0  0  0  0  0  0  0  0  0
   -2.9800    0.4400    0.0000 C   0  0  0  0  0  0  0  0  0  0  0  0
   -1.6800   -0.3100    0.0000 C   0  0  2  0  0  0  0  0  0  0  0  0
   -0.3800    0.4400    0.0000 C   0  0  1  0  0  0  0  0  0  0  0  0
   -0.3800   -4.0600    0.0000 O   0  0  0  0  0  0  0  0  0  0  0  0
  2  1  1  1  0  0  0
  2  3  1  0  0  0  0
  3  4  1  0  0  0  0
  4  5  1  1  0  0  0
  4  6  1  0  0  0  0
  6  7  1  1  0  0  0
  6  8  1  0  0  0  0
  8  9  1  0  0  0  0
 10  9  1  1  0  0  0
  4 10  1  0  0  0  0
 10 11  1  0  0  0  0
 11 12  1  6  0  0  0
 12 13  1  0  0  0  0
 13 14  1  0  0  0  0
 14 15  2  0  0  0  0
 15 16  1  0  0  0  0
 16 17  2  0  0  0  0
 16 18  1  0  0  0  0
 18 19  1  0  0  0  0
 20 19  1  6  0  0  0
 14 20  1  0  0  0  0
 20 21  1  0  0  0  0
 11 21  1  0  0  0  0
 21  2  1  1  0  0  0
 22 13  1  0  0  0  0
M  END
> <InChI>
InChI=1S/C19H28O3/c1-10-9-19(2)15(5-6-17(19)22)14-8-16(21)13-7-11(20)3-4-12(13)18(10)14/h7,10,12,14-18,21-22H,3-6,8-9H2,1-2H3/t10-,12-,14-,15-,16?,17-,18+,19-/m0/s1

> <InChIKey>
CPVHHVBWVLMZHR-PXHNDQKMSA-N

> <SMILES>
C[C@H]1C[C@]2(C)[C@@H](O)CC[C@H]2[C@@H]3CC(C4=CC(=O)CC[C@@H]4[C@H]31)O

> <Synonyms>


> <PUBCHEM_CID>


> <Molecular_formula>
C19H28O3

> <Major_Isotope_Mass>
304.20384475599997

> <ALogP>
2.276999999999996

> <Lipinski_Violations>
0

> <Insecticide_Likeness_Violations>
0

> <Post_Em_Herbicide_Likeness_Violations>
0

> <Metabolite_ID>
BTM00007

> <Reaction>
6-Hydroxylation of sterol

> <Reaction_ID>
BTMR0402

> <Enzyme(s)>
CYP2A6
CYP2B6
CYP2C8
CYP2C9
CYP2C19
CYP2D6
CYP3A4

> <Biosystem>
HUMAN

> <Precursor_ID>


> <Precursor_SMILES>
C[C@H]1C[C@]2(C)[C@@H](O)CC[C@H]2[C@@H]3CCC4=CC(=O)CC[C@@H]4[C@H]31

> <Precursor_InChI>
InChI=1S/C19H28O2/c1-11-10-19(2)16(7-8-17(19)21)15-5-3-12-9-13(20)4-6-14(12)18(11)15/h9,11,14-18,21H,3-8,10H2,1-2H3/t11-,14-,15-,16-,17-,18+,19-/m0/s1

> <Precursor_InChIKey>
QCNNHARIRLYUAB-CTPXPINYSA-N

> <Precursor_ALogP>


> <Precursor_Major_Isotope_Mass>
288.2089

$$$$
BTM00008
  CDK     09122622072D

 22 25  0  0  1  0  0  0  0  0999 V2000
   -0.8927    3.3496    0.0000 C   0  0  0  0  0  0  0  0  0  0  0  0
   -0.3800    1.9400    0.0000 C   0  0  0  0  0  0  0  0  0  0  0  0
    0.9200    2.6900    0.0000 C   0  0  0  0  0  0  0  0  0  0  0  0
    2.2200    1.9400    0.0000 C   0  0  2  0  0  0  0  0  0  0  0  0
    2.3787    3.4316    0.0000 C   0  0  0  0  0  0  0  0  0  0  0  0
    3.6500    2.4000    0.0000 C   0  0  1  0  0  0  0  0  0  0  0  0
    4.1153    3.8260    0.0000 O   0  0  0  0  0  0  0  0  0  0  0  0
    4.5300    1.1900    0.0000 C   0  0  0  0  0  0  0  0  0  0  0  0
    3.6500   -0.0200    0.0000 C   0  0  0  0  0  0  0  0  0  0  0  0
    2.2200    0.4400    0.0000 C   0  0  1  0  0  0  0  0  0  0  0  0
    0.9200   -0.3100    0.0000 C   0  0  2  0  0  0  0  0  0  0  0  0
    0.9200   -1.8100    0.0000 C   0  0  0  0  0  0  0  0  0  0  0  0
   -0.3800   -2.5600    0.0000 C   0  0  0  0  0  0  0  0  0  0  0  0
   -1.6800   -1.8100    0.0000 C   0  0  0  0  0  0  0  0  0  0  0  0
   -2.9800   -2.5600    0.0000 C   0  0  0  0  0  0  0  0  0  0  0  0
   -4.2800   -1.8100    0.0000 C   0  0  0  0  0  0  0  0  0  0  0  0
   -5.5789   -2.5602    0.0000 O   0  0  0  0  0  0  0  0  0  0  0  0
   -4.2800   -0.3100    0.0000 C   0  0  0  0  0  0  0  0  0  0  0  0
   -2.9800    0.4400    0.0000 C   0  0  0  0  0  0  0  0  0  0  0  0
   -1.6800   -0.3100    0.0000 C   0  0  2  0  0  0  0  0  0  0  0  0
   -0.3800    0.4400    0.0000 C   0  0  1  0  0  0  0  0  0  0  0  0
   -1.8572    1.6797    0.0000 O   0  0  0  0  0  0  0  0  0  0  0  0
  2  1  1  0  0  0  0
  2  3  1  0  0  0  0
  3  4  1  0  0  0  0
  4  5  1  1  0  0  0
  4  6  1  0  0  0  0
  6  7  1  1  0  0  0
  6  8  1  0  0  0  0
  8  9  1  0  0  0  0
 10  9  1  1  0  0  0
  4 10  1  0  0  0  0
 10 11  1  0  0  0  0
 11 12  1  6  0  0  0
 12 13  1  0  0  0  0
 13 14  1  0  0  0  0
 14 15  2  0  0  0  0
 15 16  1  0  0  0  0
 16 17  2  0  0  0  0
 16 18  1  0  0  0  0
 18 19  1  0  0  0  0
 20 19  1  6  0  0  0
 14 20  1  0  0  0  0
 20 21  1  0  0  0  0
 11 21  1  0  0  0  0
 21  2  1  1  0  0  0
  2 22  1  0  0  0  0
M  END
> <InChI>
InChI=1S/C19H28O3/c1-18-10-19(2,22)17-13-6-4-12(20)9-11(13)3-5-14(17)15(18)7-8-16(18)21/h9,13-17,21-22H,3-8,10H2,1-2H3/t13-,14-,15-,16-,17+,18-,19?/m0/s1

> <InChIKey>
IATRRJPCVHGKJV-UXSISGPCSA-N

> <SMILES>
CC1(C[C@]2(C)[C@@H](O)CC[C@H]2[C@@H]3CCC4=CC(=O)CC[C@@H]4[C@H]31)O

> <Synonyms>


> <PUBCHEM_CID>


> <Molecular_formula>
C19H28O3

> <Major_Isotope_Mass>
304.20384475599997

> <ALogP>
2.162699999999999

> <Lipinski_Violations>
0

> <Insecticide_Likeness_Violations>
0

> <Post_Em_Herbicide_Likeness_Violations>
0

> <Metabolite_ID>
BTM00008

> <Reaction>
Hydroxylation of penultimate aliphatic tertiary carbon

> <Reaction_ID>
BTMR1075

> <Enzyme(s)>
CYP2A6
CYP2B6
CYP2C8
CYP2C9
CYP2D6
CYP3A4

> <Biosystem>
HUMAN

> <Precursor_ID>


> <Precursor_SMILES>
C[C@H]1C[C@]2(C)[C@@H](O)CC[C@H]2[C@@H]3CCC4=CC(=O)CC[C@@H]4[C@H]31

> <Precursor_InChI>
InChI=1S/C19H28O2/c1-11-10-19(2)16(7-8-17(19)21)15-5-3-12-9-13(20)4-6-14(12)18(11)15/h9,11,14-18,21H,3-8,10H2,1-2H3/t11-,14-,15-,16-,17-,18+,19-/m0/s1

> <Precursor_InChIKey>
QCNNHARIRLYUAB-CTPXPINYSA-N

> <Precursor_ALogP>


> <Precursor_Major_Isotope_Mass>
288.2089

$$$$
BTM00009
  CDK     09122622072D

 22 25  0  0  1  0  0  0  0  0999 V2000
   -1.6789    2.6902    0.0000 C   0  0  0  0  0  0  0  0  0  0  0  0
   -0.3800    1.9400    0.0000 C   0  0  1  0  0  0  0  0  0  0  0  0
    0.9200    2.6900    0.0000 C   0  0  0  0  0  0  0  0  0  0  0  0
    2.2200    1.9400    0.0000 C   0  0  2  0  0  0  0  0  0  0  0  0
    2.3787    3.4316    0.0000 C   0  0  0  0  0  0  0  0  0  0  0  0
    3.6500    2.4000    0.0000 C   0  0  1  0  0  0  0  0  0  0  0  0
    4.1153    3.8260    0.0000 O   0  0  0  0  0  0  0  0  0  0  0  0
    4.5300    1.1900    0.0000 C   0  0  0  0  0  0  0  0  0  0  0  0
    3.6500   -0.0200    0.0000 C   0  0  0  0  0  0  0  0  0  0  0  0
    2.2200    0.4400    0.0000 C   0  0  1  0  0  0  0  0  0  0  0  0
    0.9200   -0.3100    0.0000 C   0  0  2  0  0  0  0  0  0  0  0  0
    0.9200   -1.8100    0.0000 C   0  0  0  0  0  0  0  0  0  0  0  0
   -0.3800   -2.5600    0.0000 C   0  0  0  0  0  0  0  0  0  0  0  0
   -1.6800   -1.8100    0.0000 C   0  0  0  0  0  0  0  0  0  0  0  0
   -2.9800   -2.5600    0.0000 C   0  0  0  0  0  0  0  0  0  0  0  0
   -4.2800   -1.8100    0.0000 C   0  0  0  0  0  0  0  0  0  0  0  0
   -5.5789   -2.5602    0.0000 O   0  0  0  0  0  0  0  0  0  0  0  0
   -4.2800   -0.3100    0.0000 C   0  0  0  0  0  0  0  0  0  0  0  0
   -2.9800    0.4400    0.0000 C   0  0  0  0  0  0  0  0  0  0  0  0
   -1.6800   -0.3100    0.0000 C   0  0  2  0  0  0  0  0  0  0  0  0
   -0.3800    0.4400    0.0000 C   0  0  1  0  0  0  0  0  0  0  0  0
   -1.6787    4.1902    0.0000 O   0  0  0  0  0  0  0  0  0  0  0  0
  2  1  1  1  0  0  0
  2  3  1  0  0  0  0
  3  4  1  0  0  0  0
  4  5  1  1  0  0  0
  4  6  1  0  0  0  0
  6  7  1  1  0  0  0
  6  8  1  0  0  0  0
  8  9  1  0  0  0  0
 10  9  1  1  0  0  0
  4 10  1  0  0  0  0
 10 11  1  0  0  0  0
 11 12  1  6  0  0  0
 12 13  1  0  0  0  0
 13 14  1  0  0  0  0
 14 15  2  0  0  0  0
 15 16  1  0  0  0  0
 16 17  2  0  0  0  0
 16 18  1  0  0  0  0
 18 19  1  0  0  0  0
 20 19  1  6  0  0  0
 14 20  1  0  0  0  0
 20 21  1  0  0  0  0
 11 21  1  0  0  0  0
 21  2  1  1  0  0  0
 22  1  1  0  0  0  0
M  END
> <InChI>
InChI=1S/C19H28O3/c1-19-9-12(10-20)18-14-5-3-13(21)8-11(14)2-4-15(18)16(19)6-7-17(19)22/h8,12,14-18,20,22H,2-7,9-10H2,1H3/t12-,14+,15+,16+,17+,18-,19+/m1/s1

> <InChIKey>
RSNGQHPLFOPMEX-DDMDKDBASA-N

> <SMILES>
C([C@H]1C[C@]2(C)[C@@H](O)CC[C@H]2[C@@H]3CCC4=CC(=O)CC[C@@H]4[C@H]31)O

> <Synonyms>


> <PUBCHEM_CID>


> <Molecular_formula>
C19H28O3

> <Major_Isotope_Mass>
304.20384475599997

> <ALogP>
2.220699999999998

> <Lipinski_Violations>
0

> <Insecticide_Likeness_Violations>
0

> <Post_Em_Herbicide_Likeness_Violations>
0

> <Metabolite_ID>
BTM00009

> <Reaction>
Hydroxylation of methyl carbon adjacent to aliphatic ring

> <Reaction_ID>
BTMR0054

> <Enzyme(s)>
CYP2B6
CYP2C8
CYP2C9
CYP2C19
CYP2D6
CYP3A4

> <Biosystem>
HUMAN

> <Precursor_ID>


> <Precursor_SMILES>
C[C@H]1C[C@]2(C)[C@@H](O)CC[C@H]2[C@@H]3CCC4=CC(=O)CC[C@@H]4[C@H]31

> <Precursor_InChI>
InChI=1S/C19H28O2/c1-11-10-19(2)16(7-8-17(19)21)15-5-3-12-9-13(20)4-6-14(12)18(11)15/h9,11,14-18,21H,3-8,10H2,1-2H3/t11-,14-,15-,16-,17-,18+,19-/m0/s1

> <Precursor_InChIKey>
QCNNHARIRLYUAB-CTPXPINYSA-N

> <Precursor_ALogP>


> <Precursor_Major_Isotope_Mass>
288.2089

$$$$
BTM00010
  CDK     09122622072D

 22 25  0  0  1  0  0  0  0  0999 V2000
   -1.6789    2.6902    0.0000 C   0  0  0  0  0  0  0  0  0  0  0  0
   -0.3800    1.9400    0.0000 C   0  0  1  0  0  0  0  0  0  0  0  0
    0.9200    2.6900    0.0000 C   0  0  0  0  0  0  0  0  0  0  0  0
    2.2200    1.9400    0.0000 C   0  0  2  0  0  0  0  0  0  0  0  0
    2.3787    3.4316    0.0000 C   0  0  0  0  0  0  0  0  0  0  0  0
    3.6500    2.4000    0.0000 C   0  0  1  0  0  0  0  0  0  0  0  0
    4.1153    3.8260    0.0000 O   0  0  0  0  0  0  0  0  0  0  0  0
    4.5300    1.1900    0.0000 C   0  0  0  0  0  0  0  0  0  0  0  0
    3.6500   -0.0200    0.0000 C   0  0  0  0  0  0  0  0  0  0  0  0
    2.2200    0.4400    0.0000 C   0  0  1  0  0  0  0  0  0  0  0  0
    0.9200   -0.3100    0.0000 C   0  0  2  0  0  0  0  0  0  0  0  0
    0.9200   -1.8100    0.0000 C   0  0  0  0  0  0  0  0  0  0  0  0
   -0.3800   -2.5600    0.0000 C   0  0  0  0  0  0  0  0  0  0  0  0
   -1.6800   -1.8100    0.0000 C   0  0  0  0  0  0  0  0  0  0  0  0
   -2.9800   -2.5600    0.0000 C   0  0  0  0  0  0  0  0  0  0  0  0
   -4.2800   -1.8100    0.0000 C   0  0  0  0  0  0  0  0  0  0  0  0
   -5.5789   -2.5602    0.0000 O   0  0  0  0  0  0  0  0  0  0  0  0
   -4.2800   -0.3100    0.0000 C   0  0  0  0  0  0  0  0  0  0  0  0
   -2.9800    0.4400    0.0000 C   0  0  0  0  0  0  0  0  0  0  0  0
   -1.6800   -0.3100    0.0000 C   0  0  2  0  0  0  0  0  0  0  0  0
   -0.3800    0.4400    0.0000 C   0  0  1  0  0  0  0  0  0  0  0  0
    1.1664    4.3148    0.0000 O   0  0  0  0  0  0  0  0  0  0  0  0
  2  1  1  1  0  0  0
  2  3  1  0  0  0  0
  3  4  1  0  0  0  0
  4  5  1  1  0  0  0
  4  6  1  0  0  0  0
  6  7  1  1  0  0  0
  6  8  1  0  0  0  0
  8  9  1  0  0  0  0
 10  9  1  1  0  0  0
  4 10  1  0  0  0  0
 10 11  1  0  0  0  0
 11 12  1  6  0  0  0
 12 13  1  0  0  0  0
 13 14  1  0  0  0  0
 14 15  2  0  0  0  0
 15 16  1  0  0  0  0
 16 17  2  0  0  0  0
 16 18  1  0  0  0  0
 18 19  1  0  0  0  0
 20 19  1  6  0  0  0
 14 20  1  0  0  0  0
 20 21  1  0  0  0  0
 11 21  1  0  0  0  0
 21  2  1  1  0  0  0
 22  5  1  0  0  0  0
M  END
> <InChI>
InChI=1S/C19H28O3/c1-11-9-19(10-20)16(6-7-17(19)22)15-4-2-12-8-13(21)3-5-14(12)18(11)15/h8,11,14-18,20,22H,2-7,9-10H2,1H3/t11-,14-,15-,16-,17-,18+,19+/m0/s1

> <InChIKey>
NMDZRWUAEAVKTR-DOEISITDSA-N

> <SMILES>
C[C@H]1C[C@]2(CO)[C@@H](O)CC[C@H]2[C@@H]3CCC4=CC(=O)CC[C@@H]4[C@H]31

> <Synonyms>


> <PUBCHEM_CID>


> <Molecular_formula>
C19H28O3

> <Major_Isotope_Mass>
304.20384475599997

> <ALogP>
2.288199999999998

> <Lipinski_Violations>
0

> <Insecticide_Likeness_Violations>
0

> <Post_Em_Herbicide_Likeness_Violations>
0

> <Metabolite_ID>
BTM00010

> <Reaction>
Hydroxylation of methyl carbon adjacent to aliphatic ring

> <Reaction_ID>
BTMR0054

> <Enzyme(s)>
CYP2B6
CYP2C8
CYP2C9
CYP2C19
CYP2D6
CYP3A4

> <Biosystem>
HUMAN

> <Precursor_ID>


> <Precursor_SMILES>
C[C@H]1C[C@]2(C)[C@@H](O)CC[C@H]2[C@@H]3CCC4=CC(=O)CC[C@@H]4[C@H]31

> <Precursor_InChI>
InChI=1S/C19H28O2/c1-11-10-19(2)16(7-8-17(19)21)15-5-3-12-9-13(20)4-6-14(12)18(11)15/h9,11,14-18,21H,3-8,10H2,1-2H3/t11-,14-,15-,16-,17-,18+,19-/m0/s1

> <Precursor_InChIKey>
QCNNHARIRLYUAB-CTPXPINYSA-N

> <Precursor_ALogP>


> <Precursor_Major_Isotope_Mass>
288.2089

$$$$
BTM00011
  CDK     09122622072D

 21 24  0  0  1  0  0  0  0  0999 V2000
   -1.6789    2.6902    0.0000 C   0  0  0  0  0  0  0  0  0  0  0  0
   -0.3800    1.9400    0.0000 C   0  0  1  0  0  0  0  0  0  0  0  0
    0.9200    2.6900    0.0000 C   0  0  0  0  0  0  0  0  0  0  0  0
    2.2200    1.9400    0.0000 C   0  0  2  0  0  0  0  0  0  0  0  0
    2.3787    3.4316    0.0000 C   0  0  0  0  0  0  0  0  0  0  0  0
    3.6500    2.4000    0.0000 C   0  0  1  0  0  0  0  0  0  0  0  0
    4.1153    3.8260    0.0000 O   0  0  0  0  0  0  0  0  0  0  0  0
    4.5300    1.1900    0.0000 C   0  0  0  0  0  0  0  0  0  0  0  0
    3.6500   -0.0200    0.0000 C   0  0  0  0  0  0  0  0  0  0  0  0
    2.2200    0.4400    0.0000 C   0  0  1  0  0  0  0  0  0  0  0  0
    0.9200   -0.3100    0.0000 C   0  0  2  0  0  0  0  0  0  0  0  0
    0.9200   -1.8100    0.0000 C   0  0  0  0  0  0  0  0  0  0  0  0
   -0.3800   -2.5600    0.0000 C   0  0  0  0  0  0  0  0  0  0  0  0
   -1.6800   -1.8100    0.0000 C   0  0  0  0  0  0  0  0  0  0  0  0
   -2.9800   -2.5600    0.0000 C   0  0  0  0  0  0  0  0  0  0  0  0
   -4.2800   -1.8100    0.0000 C   0  0  0  0  0  0  0  0  0  0  0  0
   -5.5789   -2.5602    0.0000 O   0  0  0  0  0  0  0  0  0  0  0  0
   -4.2800   -0.3100    0.0000 C   0  0  0  0  0  0  0  0  0  0  0  0
   -2.9800    0.4400    0.0000 C   0  0  0  0  0  0  0  0  0  0  0  0
   -1.6800   -0.3100    0.0000 C   0  0  2  0  0  0  0  0  0  0  0  0
   -0.3800    0.4400    0.0000 C   0  0  1  0  0  0  0  0  0  0  0  0
  2  1  1  1  0  0  0
  2  3  1  0  0  0  0
  3  4  1  0  0  0  0
  4  5  1  1  0  0  0
  4  6  1  0  0  0  0
  6  7  1  1  0  0  0
  6  8  1  0  0  0  0
  8  9  1  0  0  0  0
 10  9  1  1  0  0  0
  4 10  1  0  0  0  0
 10 11  1  0  0  0  0
 11 12  1  6  0  0  0
 12 13  1  0  0  0  0
 13 14  1  0  0  0  0
 14 15  1  0  0  0  0
 15 16  1  0  0  0  0
 16 17  2  0  0  0  0
 16 18  1  0  0  0  0
 18 19  1  0  0  0  0
 20 19  1  6  0  0  0
 14 20  1  0  0  0  0
 20 21  1  0  0  0  0
 11 21  1  0  0  0  0
 21  2  1  1  0  0  0
M  END
> <InChI>
InChI=1S/C19H30O2/c1-11-10-19(2)16(7-8-17(19)21)15-5-3-12-9-13(20)4-6-14(12)18(11)15/h11-12,14-18,21H,3-10H2,1-2H3/t11-,12?,14-,15-,16-,17-,18+,19-/m0/s1

> <InChIKey>
MRDPDNLEZGDGIZ-KEBQMKBYSA-N

> <SMILES>
C[C@H]1C[C@]2(C)[C@@H](O)CC[C@H]2[C@@H]3CCC4CC(=O)CC[C@@H]4[C@H]31

> <Synonyms>


> <PUBCHEM_CID>


> <Molecular_formula>
C19H30O2

> <Major_Isotope_Mass>
290.2245802

> <ALogP>
3.207499999999996

> <Lipinski_Violations>
0

> <Insecticide_Likeness_Violations>
0

> <Post_Em_Herbicide_Likeness_Violations>
0

> <Metabolite_ID>
BTM00011

> <Reaction>
Reduction of alpha,beta-unsaturated carbon-carbon double bond adjacent to electron withdrawing group

> <Reaction_ID>
BTMR1209

> <Enzyme(s)>
EC 1.6.99.1

> <Biosystem>
GUTMICRO

> <Precursor_ID>


> <Precursor_SMILES>
C[C@H]1C[C@]2(C)[C@@H](O)CC[C@H]2[C@@H]3CCC4=CC(=O)CC[C@@H]4[C@H]31

> <Precursor_InChI>
InChI=1S/C19H28O2/c1-11-10-19(2)16(7-8-17(19)21)15-5-3-12-9-13(20)4-6-14(12)18(11)15/h9,11,14-18,21H,3-8,10H2,1-2H3/t11-,14-,15-,16-,17-,18+,19-/m0/s1

> <Precursor_InChIKey>
QCNNHARIRLYUAB-CTPXPINYSA-N

> <Precursor_ALogP>


> <Precursor_Major_Isotope_Mass>
288.2089

$$$$
