BTM00001
  CDK     09122622092D

 22 25  0  0  1  0  0  0  0  0999 V2000
    6.6370    1.5206    0.0000 C   0  0  0  0  0  0  0  0  0  0  0  0
    5.3384    2.2714    0.0000 C   0  0  0  0  0  0  0  0  0  0  0  0
    4.0389    1.5223    0.0000 C   0  0  2  0  0  0  0  0  0  0  0  0
    3.0424    3.7714    0.0000 O   0  0  0  0  0  0  0  0  0  0  0  0
    4.9189    0.3123    0.0000 C   0  0  0  0  0  0  0  0  0  0  0  0
    4.0389   -0.8977    0.0000 C   0  0  0  0  0  0  0  0  0  0  0  0
    2.6089   -0.4377    0.0000 C   0  0  1  0  0  0  0  0  0  0  0  0
    1.3089   -1.1877    0.0000 C   0  0  2  0  0  0  0  0  0  0  0  0
    1.3089   -2.6877    0.0000 C   0  0  0  0  0  0  0  0  0  0  0  0
    0.0089   -3.4377    0.0000 C   0  0  0  0  0  0  0  0  0  0  0  0
   -1.2911   -2.6877    0.0000 C   0  0  0  0  0  0  0  0  0  0  0  0
   -2.5911   -3.4377    0.0000 C   0  0  0  0  0  0  0  0  0  0  0  0
   -3.8911   -2.6877    0.0000 C   0  0  0  0  0  0  0  0  0  0  0  0
   -3.8911   -1.1877    0.0000 C   0  0  0  0  0  0  0  0  0  0  0  0
   -2.5911   -0.4377    0.0000 C   0  0  0  0  0  0  0  0  0  0  0  0
   -1.2911   -1.1877    0.0000 C   0  0  2  0  0  0  0  0  0  0  0  0
    0.0089   -0.4377    0.0000 C   0  0  1  0  0  0  0  0  0  0  0  0
    0.0089    1.0623    0.0000 C   0  0  0  0  0  0  0  0  0  0  0  0
    1.3089    1.8123    0.0000 C   0  0  0  0  0  0  0  0  0  0  0  0
    2.6089    1.0623    0.0000 C   0  0  2  0  0  0  0  0  0  0  0  0
    3.6075   -0.0570    0.0000 C   0  0  0  0  0  0  0  0  0  0  0  0
   -1.2900    1.8125    0.0000 O   0  0  0  0  0  0  0  0  0  0  0  0
  1  2  1  0  0  0  0
  3  2  1  6  0  0  0
  3  4  1  1  0  0  0
  3  5  1  0  0  0  0
  5  6  1  0  0  0  0
  7  6  1  1  0  0  0
  7  8  1  0  0  0  0
  8  9  1  6  0  0  0
  9 10  1  0  0  0  0
 10 11  1  0  0  0  0
 11 12  2  0  0  0  0
 12 13  1  0  0  0  0
 13 14  1  0  0  0  0
 14 15  1  0  0  0  0
 16 15  1  6  0  0  0
 11 16  1  0  0  0  0
 16 17  1  0  0  0  0
  8 17  1  0  0  0  0
 17 18  1  1  0  0  0
 18 19  1  0  0  0  0
 19 20  1  0  0  0  0
  7 20  1  0  0  0  0
  3 20  1  0  0  0  0
 20 21  1  1  0  0  0
 22 18  1  0  0  0  0
M  END
> <InChI>
InChI=1S/C20H32O2/c1-3-20(22)11-10-16-15-9-8-13-6-4-5-7-14(13)18(15)17(21)12-19(16,20)2/h6,14-18,21-22H,3-5,7-12H2,1-2H3/t14-,15-,16-,17?,18+,19-,20-/m0/s1

> <InChIKey>
IWGSDEAQWWTAKS-YJXKPIRBSA-N

> <SMILES>
CC[C@]1(O)CC[C@H]2[C@@H]3CCC4=CCCC[C@@H]4[C@H]3C(C[C@@]21C)O

> <Synonyms>


> <PUBCHEM_CID>


> <Molecular_formula>
C20H32O2

> <Major_Isotope_Mass>
304.240230264

> <ALogP>
3.827799999999999

> <Lipinski_Violations>
0

> <Insecticide_Likeness_Violations>
0

> <Post_Em_Herbicide_Likeness_Violations>
0

> <Metabolite_ID>
BTM00001

> <Reaction>
11-beta-Hydroxylation of sterol

> <Reaction_ID>
BTMR0406

> <Enzyme(s)>
EC 1.14.15.4

> <Biosystem>
HUMAN

> <Precursor_ID>


> <Precursor_SMILES>
CC[C@]1(O)CC[C@H]2[C@@H]3CCC4=CCCC[C@@H]4[C@H]3CC[C@@]21C

> <Precursor_InChI>
InChI=1S/C20H32O/c1-3-20(21)13-11-18-17-9-8-14-6-4-5-7-15(14)16(17)10-12-19(18,20)2/h6,15-18,21H,3-5,7-13H2,1-2H3/t15-,16+,17+,18-,19-,20-/m0/s1

> <Precursor_InChIKey>
AOXRBFRFYPMWLR-XGXHKTLJSA-N

> <Precursor_ALogP>


> <Precursor_Major_Isotope_Mass>
288.2453

$$$$
BTM00002
  CDK     09122622092D

 33 37  0  0  1  0  0  0  0  0999 V2000
    6.4425    1.9594    0.0000 C   0  0  0  0  0  0  0  0  0  0  0  0
    5.1440    2.7103    0.0000 C   0  0  0  0  0  0  0  0  0  0  0  0
    3.8444    1.9611    0.0000 C   0  0  2  0  0  0  0  0  0  0  0  0
    3.0424    3.7714    0.0000 O   0  0  0  0  0  0  0  0  0  0  0  0
    4.7244    0.7511    0.0000 C   0  0  0  0  0  0  0  0  0  0  0  0
    3.8444   -0.4589    0.0000 C   0  0  0  0  0  0  0  0  0  0  0  0
    2.4144    0.0011    0.0000 C   0  0  1  0  0  0  0  0  0  0  0  0
    1.1144   -0.7489    0.0000 C   0  0  2  0  0  0  0  0  0  0  0  0
    1.1144   -2.2489    0.0000 C   0  0  0  0  0  0  0  0  0  0  0  0
   -0.1856   -2.9989    0.0000 C   0  0  0  0  0  0  0  0  0  0  0  0
   -1.4856   -2.2489    0.0000 C   0  0  0  0  0  0  0  0  0  0  0  0
   -2.7856   -2.9989    0.0000 C   0  0  0  0  0  0  0  0  0  0  0  0
   -4.0856   -2.2489    0.0000 C   0  0  0  0  0  0  0  0  0  0  0  0
   -4.0856   -0.7489    0.0000 C   0  0  0  0  0  0  0  0  0  0  0  0
   -2.7856    0.0011    0.0000 C   0  0  0  0  0  0  0  0  0  0  0  0
   -1.4856   -0.7489    0.0000 C   0  0  2  0  0  0  0  0  0  0  0  0
   -0.1856    0.0011    0.0000 C   0  0  1  0  0  0  0  0  0  0  0  0
   -0.1856    1.5011    0.0000 C   0  0  0  0  0  0  0  0  0  0  0  0
    1.1144    2.2511    0.0000 C   0  0  0  0  0  0  0  0  0  0  0  0
    2.4144    1.5011    0.0000 C   0  0  2  0  0  0  0  0  0  0  0  0
    2.5732    2.9927    0.0000 C   0  0  0  0  0  0  0  0  0  0  0  0
    1.8365    6.5132    0.0000 O   0  0  0  0  0  0  0  0  0  0  0  0
    3.3273    6.3477    0.0000 C   0  0  0  0  0  0  0  0  0  0  0  0
    4.2305    7.5742    0.0000 C   0  0  0  0  0  0  0  0  0  0  0  0
    3.6322    8.9497    0.0000 O   0  0  0  0  0  0  0  0  0  0  0  0
    5.7264    7.4008    0.0000 C   0  0  0  0  0  0  0  0  0  0  0  0
    6.6177    8.6072    0.0000 O   0  0  0  0  0  0  0  0  0  0  0  0
    6.3253    6.0364    0.0000 C   0  0  0  0  0  0  0  0  0  0  0  0
    5.4363    4.8272    0.0000 O   0  0  0  0  0  0  0  0  0  0  0  0
    3.9262    4.9834    0.0000 C   0  0  0  0  0  0  0  0  0  0  0  0
    7.8162    5.8716    0.0000 C   0  0  0  0  0  0  0  0  0  0  0  0
    8.7044    7.0803    0.0000 O   0  0  0  0  0  0  0  0  0  0  0  0
    8.4189    4.4980    0.0000 O   0  0  0  0  0  0  0  0  0  0  0  0
  1  2  1  0  0  0  0
  3  2  1  6  0  0  0
  3  4  1  1  0  0  0
  3  5  1  0  0  0  0
  5  6  1  0  0  0  0
  7  6  1  1  0  0  0
  7  8  1  0  0  0  0
  8  9  1  6  0  0  0
  9 10  1  0  0  0  0
 10 11  1  0  0  0  0
 11 12  2  0  0  0  0
 12 13  1  0  0  0  0
 13 14  1  0  0  0  0
 14 15  1  0  0  0  0
 16 15  1  6  0  0  0
 11 16  1  0  0  0  0
 16 17  1  0  0  0  0
  8 17  1  0  0  0  0
 17 18  1  1  0  0  0
 18 19  1  0  0  0  0
 19 20  1  0  0  0  0
  7 20  1  0  0  0  0
  3 20  1  0  0  0  0
 20 21  1  1  0  0  0
 22 23  1  0  0  0  0
 23 24  1  0  0  0  0
 24 25  1  0  0  0  0
 24 26  1  0  0  0  0
 26 27  1  0  0  0  0
 26 28  1  0  0  0  0
 28 29  1  0  0  0  0
 29 30  1  0  0  0  0
 23 30  1  0  0  0  0
 30  4  1  0  0  0  0
 28 31  1  0  0  0  0
 31 32  1  0  0  0  0
 31 33  2  0  0  0  0
M  END
> <InChI>
InChI=1S/C26H40O7/c1-3-26(33-24-21(29)19(27)20(28)22(32-24)23(30)31)13-11-18-17-9-8-14-6-4-5-7-15(14)16(17)10-12-25(18,26)2/h6,15-22,24,27-29H,3-5,7-13H2,1-2H3,(H,30,31)/t15-,16+,17+,18-,19?,20?,21?,22?,24?,25-,26-/m0/s1

> <InChIKey>
HIVPUOSJKHZHKA-CDEBJCKQSA-N

> <SMILES>
CC[C@]1(OC2OC(C(C(C2O)O)O)C(O)=O)CC[C@H]3[C@@H]4CCC5=CCCC[C@@H]5[C@H]4CC[C@@]31C

> <Synonyms>


> <PUBCHEM_CID>


> <Molecular_formula>
C26H40O7

> <Major_Isotope_Mass>
464.27740362

> <ALogP>
3.4591999999999956

> <Lipinski_Violations>
1

> <Insecticide_Likeness_Violations>
1

> <Post_Em_Herbicide_Likeness_Violations>
1

> <Metabolite_ID>
BTM00002

> <Reaction>
17-OH-Glucuronidation of sterol

> <Reaction_ID>
BTMR0163

> <Enzyme(s)>
EC 2.4.1.17

> <Biosystem>
HUMAN

> <Precursor_ID>


> <Precursor_SMILES>
CC[C@]1(O)CC[C@H]2[C@@H]3CCC4=CCCC[C@@H]4[C@H]3CC[C@@]21C

> <Precursor_InChI>
InChI=1S/C20H32O/c1-3-20(21)13-11-18-17-9-8-14-6-4-5-7-15(14)16(17)10-12-19(18,20)2/h6,15-18,21H,3-5,7-13H2,1-2H3/t15-,16+,17+,18-,19-,20-/m0/s1

> <Precursor_InChIKey>
AOXRBFRFYPMWLR-XGXHKTLJSA-N

> <Precursor_ALogP>


> <Precursor_Major_Isotope_Mass>
288.2453

$$$$
BTM00003
  CDK     09122622092D

 22 25  0  0  1  0  0  0  0  0999 V2000
    5.3394    3.7714    0.0000 C   0  0  0  0  0  0  0  0  0  0  0  0
    5.3384    2.2714    0.0000 C   0  0  0  0  0  0  0  0  0  0  0  0
    4.0389    1.5223    0.0000 C   0  0  2  0  0  0  0  0  0  0  0  0
    3.0424    3.7714    0.0000 O   0  0  0  0  0  0  0  0  0  0  0  0
    4.9189    0.3123    0.0000 C   0  0  0  0  0  0  0  0  0  0  0  0
    4.0389   -0.8977    0.0000 C   0  0  0  0  0  0  0  0  0  0  0  0
    2.6089   -0.4377    0.0000 C   0  0  1  0  0  0  0  0  0  0  0  0
    1.3089   -1.1877    0.0000 C   0  0  2  0  0  0  0  0  0  0  0  0
    1.3089   -2.6877    0.0000 C   0  0  0  0  0  0  0  0  0  0  0  0
    0.0089   -3.4377    0.0000 C   0  0  0  0  0  0  0  0  0  0  0  0
   -1.2911   -2.6877    0.0000 C   0  0  0  0  0  0  0  0  0  0  0  0
   -2.5911   -3.4377    0.0000 C   0  0  0  0  0  0  0  0  0  0  0  0
   -3.8911   -2.6877    0.0000 C   0  0  0  0  0  0  0  0  0  0  0  0
   -3.8911   -1.1877    0.0000 C   0  0  0  0  0  0  0  0  0  0  0  0
   -2.5911   -0.4377    0.0000 C   0  0  0  0  0  0  0  0  0  0  0  0
   -1.2911   -1.1877    0.0000 C   0  0  2  0  0  0  0  0  0  0  0  0
    0.0089   -0.4377    0.0000 C   0  0  1  0  0  0  0  0  0  0  0  0
    0.0089    1.0623    0.0000 C   0  0  0  0  0  0  0  0  0  0  0  0
    1.3089    1.8123    0.0000 C   0  0  0  0  0  0  0  0  0  0  0  0
    2.6089    1.0623    0.0000 C   0  0  2  0  0  0  0  0  0  0  0  0
    3.6075   -0.0570    0.0000 C   0  0  0  0  0  0  0  0  0  0  0  0
    6.4189    0.3123    0.0000 O   0  0  0  0  0  0  0  0  0  0  0  0
  1  2  1  0  0  0  0
  3  2  1  6  0  0  0
  3  4  1  1  0  0  0
  3  5  1  0  0  0  0
  5  6  1  0  0  0  0
  7  6  1  1  0  0  0
  7  8  1  0  0  0  0
  8  9  1  6  0  0  0
  9 10  1  0  0  0  0
 10 11  1  0  0  0  0
 11 12  2  0  0  0  0
 12 13  1  0  0  0  0
 13 14  1  0  0  0  0
 14 15  1  0  0  0  0
 16 15  1  6  0  0  0
 11 16  1  0  0  0  0
 16 17  1  0  0  0  0
  8 17  1  0  0  0  0
 17 18  1  1  0  0  0
 18 19  1  0  0  0  0
 19 20  1  0  0  0  0
  7 20  1  0  0  0  0
  3 20  1  0  0  0  0
 20 21  1  1  0  0  0
 22  5  1  0  0  0  0
M  END
> <InChI>
InChI=1S/C20H32O2/c1-3-20(22)18(21)12-17-16-9-8-13-6-4-5-7-14(13)15(16)10-11-19(17,20)2/h6,14-18,21-22H,3-5,7-12H2,1-2H3/t14-,15+,16+,17-,18?,19-,20-/m0/s1

> <InChIKey>
PYZVOLQXRWBXFV-LUEHTCFYSA-N

> <SMILES>
CC[C@]1(O)C(C[C@H]2[C@@H]3CCC4=CCCC[C@@H]4[C@H]3CC[C@@]21C)O

> <Synonyms>


> <PUBCHEM_CID>


> <Molecular_formula>
C20H32O2

> <Major_Isotope_Mass>
304.240230264

> <ALogP>
4.0303

> <Lipinski_Violations>
1

> <Insecticide_Likeness_Violations>
0

> <Post_Em_Herbicide_Likeness_Violations>
0

> <Metabolite_ID>
BTM00003

> <Reaction>
16-Hydroxylation of sterol

> <Reaction_ID>
BTMR0407

> <Enzyme(s)>
CYP1A2
CYP2A6
CYP2B6
CYP2C8
CYP2C9
CYP2C19
CYP2D6
CYP2E1
CYP3A4

> <Biosystem>
HUMAN

> <Precursor_ID>


> <Precursor_SMILES>
CC[C@]1(O)CC[C@H]2[C@@H]3CCC4=CCCC[C@@H]4[C@H]3CC[C@@]21C

> <Precursor_InChI>
InChI=1S/C20H32O/c1-3-20(21)13-11-18-17-9-8-14-6-4-5-7-15(14)16(17)10-12-19(18,20)2/h6,15-18,21H,3-5,7-13H2,1-2H3/t15-,16+,17+,18-,19-,20-/m0/s1

> <Precursor_InChIKey>
AOXRBFRFYPMWLR-XGXHKTLJSA-N

> <Precursor_ALogP>


> <Precursor_Major_Isotope_Mass>
288.2453

$$$$
BTM00004
  CDK     09122622092D

 22 25  0  0  1  0  0  0  0  0999 V2000
    6.6370    1.5206    0.0000 C   0  0  0  0  0  0  0  0  0  0  0  0
    5.3384    2.2714    0.0000 C   0  0  0  0  0  0  0  0  0  0  0  0
    4.0389    1.5223    0.0000 C   0  0  2  0  0  0  0  0  0  0  0  0
    3.0424    3.7714    0.0000 O   0  0  0  0  0  0  0  0  0  0  0  0
    4.9189    0.3123    0.0000 C   0  0  0  0  0  0  0  0  0  0  0  0
    4.0389   -0.8977    0.0000 C   0  0  0  0  0  0  0  0  0  0  0  0
    2.6089   -0.4377    0.0000 C   0  0  1  0  0  0  0  0  0  0  0  0
    1.3089   -1.1877    0.0000 C   0  0  2  0  0  0  0  0  0  0  0  0
    1.3089   -2.6877    0.0000 C   0  0  0  0  0  0  0  0  0  0  0  0
    0.0089   -3.4377    0.0000 C   0  0  0  0  0  0  0  0  0  0  0  0
   -1.2911   -2.6877    0.0000 C   0  0  0  0  0  0  0  0  0  0  0  0
   -2.5911   -3.4377    0.0000 C   0  0  0  0  0  0  0  0  0  0  0  0
   -3.8911   -2.6877    0.0000 C   0  0  0  0  0  0  0  0  0  0  0  0
   -3.8911   -1.1877    0.0000 C   0  0  0  0  0  0  0  0  0  0  0  0
   -2.5911   -0.4377    0.0000 C   0  0  0  0  0  0  0  0  0  0  0  0
   -1.2911   -1.1877    0.0000 C   0  0  2  0  0  0  0  0  0  0  0  0
    0.0089   -0.4377    0.0000 C   0  0  1  0  0  0  0  0  0  0  0  0
    0.0089    1.0623    0.0000 C   0  0  0  0  0  0  0  0  0  0  0  0
    1.3089    1.8123    0.0000 C   0  0  0  0  0  0  0  0  0  0  0  0
    2.6089    1.0623    0.0000 C   0  0  2  0  0  0  0  0  0  0  0  0
    3.6075   -0.0570    0.0000 C   0  0  0  0  0  0  0  0  0  0  0  0
   -5.1900   -0.4375    0.0000 O   0  0  0  0  0  0  0  0  0  0  0  0
  1  2  1  0  0  0  0
  3  2  1  6  0  0  0
  3  4  1  1  0  0  0
  3  5  1  0  0  0  0
  5  6  1  0  0  0  0
  7  6  1  1  0  0  0
  7  8  1  0  0  0  0
  8  9  1  6  0  0  0
  9 10  1  0  0  0  0
 10 11  1  0  0  0  0
 11 12  2  0  0  0  0
 12 13  1  0  0  0  0
 13 14  1  0  0  0  0
 14 15  1  0  0  0  0
 16 15  1  6  0  0  0
 11 16  1  0  0  0  0
 16 17  1  0  0  0  0
  8 17  1  0  0  0  0
 17 18  1  1  0  0  0
 18 19  1  0  0  0  0
 19 20  1  0  0  0  0
  7 20  1  0  0  0  0
  3 20  1  0  0  0  0
 20 21  1  1  0  0  0
 22 14  1  0  0  0  0
M  END
> <InChI>
InChI=1S/C20H32O2/c1-3-20(22)11-9-18-16-7-5-13-4-6-14(21)12-17(13)15(16)8-10-19(18,20)2/h4,14-18,21-22H,3,5-12H2,1-2H3/t14?,15-,16+,17-,18-,19-,20-/m0/s1

> <InChIKey>
QEEYYFNAFOHMBO-IVRCYTKGSA-N

> <SMILES>
CC[C@]1(O)CC[C@H]2[C@@H]3CCC4=CCC(C[C@@H]4[C@H]3CC[C@@]21C)O

> <Synonyms>


> <PUBCHEM_CID>


> <Molecular_formula>
C20H32O2

> <Major_Isotope_Mass>
304.240230264

> <ALogP>
3.7602999999999973

> <Lipinski_Violations>
0

> <Insecticide_Likeness_Violations>
0

> <Post_Em_Herbicide_Likeness_Violations>
0

> <Metabolite_ID>
BTM00004

> <Reaction>
2-Hydroxylation of sterol

> <Reaction_ID>
BTMR0398

> <Enzyme(s)>
CYP1A2
CYP2C19
CYP3A4

> <Biosystem>
HUMAN

> <Precursor_ID>


> <Precursor_SMILES>
CC[C@]1(O)CC[C@H]2[C@@H]3CCC4=CCCC[C@@H]4[C@H]3CC[C@@]21C

> <Precursor_InChI>
InChI=1S/C20H32O/c1-3-20(21)13-11-18-17-9-8-14-6-4-5-7-15(14)16(17)10-12-19(18,20)2/h6,15-18,21H,3-5,7-13H2,1-2H3/t15-,16+,17+,18-,19-,20-/m0/s1

> <Precursor_InChIKey>
AOXRBFRFYPMWLR-XGXHKTLJSA-N

> <Precursor_ALogP>


> <Precursor_Major_Isotope_Mass>
288.2453

$$$$
BTM00005
  CDK     09122622092D

 22 25  0  0  1  0  0  0  0  0999 V2000
    5.3394    3.7714    0.0000 C   0  0  0  0  0  0  0  0  0  0  0  0
    5.3384    2.2714    0.0000 C   0  0  0  0  0  0  0  0  0  0  0  0
    4.0389    1.5223    0.0000 C   0  0  2  0  0  0  0  0  0  0  0  0
    3.0424    3.7714    0.0000 O   0  0  0  0  0  0  0  0  0  0  0  0
    4.9189    0.3123    0.0000 C   0  0  0  0  0  0  0  0  0  0  0  0
    4.0389   -0.8977    0.0000 C   0  0  0  0  0  0  0  0  0  0  0  0
    2.6089   -0.4377    0.0000 C   0  0  1  0  0  0  0  0  0  0  0  0
    1.3089   -1.1877    0.0000 C   0  0  2  0  0  0  0  0  0  0  0  0
    1.3089   -2.6877    0.0000 C   0  0  0  0  0  0  0  0  0  0  0  0
    0.0089   -3.4377    0.0000 C   0  0  0  0  0  0  0  0  0  0  0  0
   -1.2911   -2.6877    0.0000 C   0  0  0  0  0  0  0  0  0  0  0  0
   -2.5911   -3.4377    0.0000 C   0  0  0  0  0  0  0  0  0  0  0  0
   -3.8911   -2.6877    0.0000 C   0  0  0  0  0  0  0  0  0  0  0  0
   -3.8911   -1.1877    0.0000 C   0  0  0  0  0  0  0  0  0  0  0  0
   -2.5911   -0.4377    0.0000 C   0  0  0  0  0  0  0  0  0  0  0  0
   -1.2911   -1.1877    0.0000 C   0  0  2  0  0  0  0  0  0  0  0  0
    0.0089   -0.4377    0.0000 C   0  0  1  0  0  0  0  0  0  0  0  0
    0.0089    1.0623    0.0000 C   0  0  0  0  0  0  0  0  0  0  0  0
    1.3089    1.8123    0.0000 C   0  0  0  0  0  0  0  0  0  0  0  0
    2.6089    1.0623    0.0000 C   0  0  2  0  0  0  0  0  0  0  0  0
    3.6075   -0.0570    0.0000 C   0  0  0  0  0  0  0  0  0  0  0  0
   -2.5911   -4.9377    0.0000 O   0  0  0  0  0  0  0  0  0  0  0  0
  1  2  1  0  0  0  0
  3  2  1  6  0  0  0
  3  4  1  1  0  0  0
  3  5  1  0  0  0  0
  5  6  1  0  0  0  0
  7  6  1  1  0  0  0
  7  8  1  0  0  0  0
  8  9  1  6  0  0  0
  9 10  1  0  0  0  0
 10 11  1  0  0  0  0
 11 12  2  0  0  0  0
 12 13  1  0  0  0  0
 13 14  1  0  0  0  0
 14 15  1  0  0  0  0
 16 15  1  6  0  0  0
 11 16  1  0  0  0  0
 16 17  1  0  0  0  0
  8 17  1  0  0  0  0
 17 18  1  1  0  0  0
 18 19  1  0  0  0  0
 19 20  1  0  0  0  0
  7 20  1  0  0  0  0
  3 20  1  0  0  0  0
 20 21  1  1  0  0  0
 22 12  1  0  0  0  0
M  END
> <InChI>
InChI=1S/C20H32O2/c1-3-20(22)12-10-17-15-7-8-16-13(5-4-6-18(16)21)14(15)9-11-19(17,20)2/h13-15,17,21-22H,3-12H2,1-2H3/t13-,14-,15-,17+,19+,20+/m1/s1

> <InChIKey>
OXKWTSNPPTUQFY-WLCXVKOPSA-N

> <SMILES>
CC[C@]1(O)CC[C@H]2[C@@H]3CCC4=C(CCC[C@@H]4[C@H]3CC[C@@]21C)O

> <Synonyms>


> <PUBCHEM_CID>


> <Molecular_formula>
C20H32O2

> <Major_Isotope_Mass>
304.240230264

> <ALogP>
4.2990999999999975

> <Lipinski_Violations>
0

> <Insecticide_Likeness_Violations>
0

> <Post_Em_Herbicide_Likeness_Violations>
0

> <Metabolite_ID>
BTM00005

> <Reaction>
4-Hydroxylation of sterol

> <Reaction_ID>
BTMR0400

> <Enzyme(s)>
CYP1A2
CYP3A4

> <Biosystem>
HUMAN

> <Precursor_ID>


> <Precursor_SMILES>
CC[C@]1(O)CC[C@H]2[C@@H]3CCC4=CCCC[C@@H]4[C@H]3CC[C@@]21C

> <Precursor_InChI>
InChI=1S/C20H32O/c1-3-20(21)13-11-18-17-9-8-14-6-4-5-7-15(14)16(17)10-12-19(18,20)2/h6,15-18,21H,3-5,7-13H2,1-2H3/t15-,16+,17+,18-,19-,20-/m0/s1

> <Precursor_InChIKey>
AOXRBFRFYPMWLR-XGXHKTLJSA-N

> <Precursor_ALogP>


> <Precursor_Major_Isotope_Mass>
288.2453

$$$$
BTM00006
  CDK     09122622092D

 22 25  0  0  1  0  0  0  0  0999 V2000
    5.3394    3.7714    0.0000 C   0  0  0  0  0  0  0  0  0  0  0  0
    5.3384    2.2714    0.0000 C   0  0  0  0  0  0  0  0  0  0  0  0
    4.0389    1.5223    0.0000 C   0  0  2  0  0  0  0  0  0  0  0  0
    3.0424    3.7714    0.0000 O   0  0  0  0  0  0  0  0  0  0  0  0
    4.9189    0.3123    0.0000 C   0  0  0  0  0  0  0  0  0  0  0  0
    4.0389   -0.8977    0.0000 C   0  0  0  0  0  0  0  0  0  0  0  0
    2.6089   -0.4377    0.0000 C   0  0  1  0  0  0  0  0  0  0  0  0
    1.3089   -1.1877    0.0000 C   0  0  2  0  0  0  0  0  0  0  0  0
    1.3089   -2.6877    0.0000 C   0  0  0  0  0  0  0  0  0  0  0  0
    0.0089   -3.4377    0.0000 C   0  0  0  0  0  0  0  0  0  0  0  0
   -1.2911   -2.6877    0.0000 C   0  0  0  0  0  0  0  0  0  0  0  0
   -2.5911   -3.4377    0.0000 C   0  0  0  0  0  0  0  0  0  0  0  0
   -3.8911   -2.6877    0.0000 C   0  0  0  0  0  0  0  0  0  0  0  0
   -3.8911   -1.1877    0.0000 C   0  0  0  0  0  0  0  0  0  0  0  0
   -2.5911   -0.4377    0.0000 C   0  0  0  0  0  0  0  0  0  0  0  0
   -1.2911   -1.1877    0.0000 C   0  0  2  0  0  0  0  0  0  0  0  0
    0.0089   -0.4377    0.0000 C   0  0  1  0  0  0  0  0  0  0  0  0
    0.0089    1.0623    0.0000 C   0  0  0  0  0  0  0  0  0  0  0  0
    1.3089    1.8123    0.0000 C   0  0  0  0  0  0  0  0  0  0  0  0
    2.6089    1.0623    0.0000 C   0  0  2  0  0  0  0  0  0  0  0  0
    3.6075   -0.0570    0.0000 C   0  0  0  0  0  0  0  0  0  0  0  0
    6.6370    1.5206    0.0000 O   0  0  0  0  0  0  0  0  0  0  0  0
  1  2  1  0  0  0  0
  3  2  1  0  0  0  0
  3  4  1  1  0  0  0
  3  5  1  0  0  0  0
  5  6  1  0  0  0  0
  7  6  1  1  0  0  0
  7  8  1  0  0  0  0
  8  9  1  6  0  0  0
  9 10  1  0  0  0  0
 10 11  1  0  0  0  0
 11 12  2  0  0  0  0
 12 13  1  0  0  0  0
 13 14  1  0  0  0  0
 14 15  1  0  0  0  0
 16 15  1  6  0  0  0
 11 16  1  0  0  0  0
 16 17  1  0  0  0  0
  8 17  1  0  0  0  0
 17 18  1  1  0  0  0
 18 19  1  0  0  0  0
 19 20  1  0  0  0  0
  7 20  1  0  0  0  0
  3 20  1  0  0  0  0
 20 21  1  1  0  0  0
  2 22  1  0  0  0  0
M  END
> <InChI>
InChI=1S/C20H32O2/c1-13(21)20(22)12-10-18-17-8-7-14-5-3-4-6-15(14)16(17)9-11-19(18,20)2/h5,13,15-18,21-22H,3-4,6-12H2,1-2H3/t13?,15-,16+,17+,18-,19-,20+/m0/s1

> <InChIKey>
YEMAVVOCHJWPGL-GSZQDFRWSA-N

> <SMILES>
CC([C@]1(O)CC[C@H]2[C@@H]3CCC4=CCCC[C@@H]4[C@H]3CC[C@@]21C)O

> <Synonyms>


> <PUBCHEM_CID>


> <Molecular_formula>
C20H32O2

> <Major_Isotope_Mass>
304.240230264

> <ALogP>
3.962799999999998

> <Lipinski_Violations>
1

> <Insecticide_Likeness_Violations>
0

> <Post_Em_Herbicide_Likeness_Violations>
0

> <Metabolite_ID>
BTM00006

> <Reaction>
Hydroxylation of penultimate aliphatic secondary carbon

> <Reaction_ID>
BTMR1074

> <Enzyme(s)>
CYP1A2
CYP2A6
CYP2B6
CYP2C8
CYP2C9
CYP2C19
CYP2D6
CYP2E1
CYP3A4

> <Biosystem>
HUMAN

> <Precursor_ID>


> <Precursor_SMILES>
CC[C@]1(O)CC[C@H]2[C@@H]3CCC4=CCCC[C@@H]4[C@H]3CC[C@@]21C

> <Precursor_InChI>
InChI=1S/C20H32O/c1-3-20(21)13-11-18-17-9-8-14-6-4-5-7-15(14)16(17)10-12-19(18,20)2/h6,15-18,21H,3-5,7-13H2,1-2H3/t15-,16+,17+,18-,19-,20-/m0/s1

> <Precursor_InChIKey>
AOXRBFRFYPMWLR-XGXHKTLJSA-N

> <Precursor_ALogP>


> <Precursor_Major_Isotope_Mass>
288.2453

$$$$
BTM00007
  CDK     09122622092D

 22 25  0  0  1  0  0  0  0  0999 V2000
    5.3394    3.7714    0.0000 C   0  0  0  0  0  0  0  0  0  0  0  0
    5.3384    2.2714    0.0000 C   0  0  0  0  0  0  0  0  0  0  0  0
    4.0389    1.5223    0.0000 C   0  0  2  0  0  0  0  0  0  0  0  0
    3.0424    3.7714    0.0000 O   0  0  0  0  0  0  0  0  0  0  0  0
    4.9189    0.3123    0.0000 C   0  0  0  0  0  0  0  0  0  0  0  0
    4.0389   -0.8977    0.0000 C   0  0  0  0  0  0  0  0  0  0  0  0
    2.6089   -0.4377    0.0000 C   0  0  1  0  0  0  0  0  0  0  0  0
    1.3089   -1.1877    0.0000 C   0  0  2  0  0  0  0  0  0  0  0  0
    1.3089   -2.6877    0.0000 C   0  0  0  0  0  0  0  0  0  0  0  0
    0.0089   -3.4377    0.0000 C   0  0  0  0  0  0  0  0  0  0  0  0
   -1.2911   -2.6877    0.0000 C   0  0  0  0  0  0  0  0  0  0  0  0
   -2.5911   -3.4377    0.0000 C   0  0  0  0  0  0  0  0  0  0  0  0
   -3.8911   -2.6877    0.0000 C   0  0  0  0  0  0  0  0  0  0  0  0
   -3.8911   -1.1877    0.0000 C   0  0  0  0  0  0  0  0  0  0  0  0
   -2.5911   -0.4377    0.0000 C   0  0  0  0  0  0  0  0  0  0  0  0
   -1.2911   -1.1877    0.0000 C   0  0  2  0  0  0  0  0  0  0  0  0
    0.0089   -0.4377    0.0000 C   0  0  1  0  0  0  0  0  0  0  0  0
    0.0089    1.0623    0.0000 C   0  0  0  0  0  0  0  0  0  0  0  0
    1.3089    1.8123    0.0000 C   0  0  0  0  0  0  0  0  0  0  0  0
    2.6089    1.0623    0.0000 C   0  0  2  0  0  0  0  0  0  0  0  0
    3.6075   -0.0570    0.0000 C   0  0  0  0  0  0  0  0  0  0  0  0
    6.6389    4.5206    0.0000 O   0  0  0  0  0  0  0  0  0  0  0  0
  1  2  1  0  0  0  0
  3  2  1  6  0  0  0
  3  4  1  1  0  0  0
  3  5  1  0  0  0  0
  5  6  1  0  0  0  0
  7  6  1  1  0  0  0
  7  8  1  0  0  0  0
  8  9  1  6  0  0  0
  9 10  1  0  0  0  0
 10 11  1  0  0  0  0
 11 12  2  0  0  0  0
 12 13  1  0  0  0  0
 13 14  1  0  0  0  0
 14 15  1  0  0  0  0
 16 15  1  6  0  0  0
 11 16  1  0  0  0  0
 16 17  1  0  0  0  0
  8 17  1  0  0  0  0
 17 18  1  1  0  0  0
 18 19  1  0  0  0  0
 19 20  1  0  0  0  0
  7 20  1  0  0  0  0
  3 20  1  0  0  0  0
 20 21  1  1  0  0  0
 22  1  1  0  0  0  0
M  END
> <InChI>
InChI=1S/C20H32O2/c1-19-10-8-16-15-5-3-2-4-14(15)6-7-17(16)18(19)9-11-20(19,22)12-13-21/h4,15-18,21-22H,2-3,5-13H2,1H3/t15-,16+,17+,18-,19-,20+/m0/s1

> <InChIKey>
USICVUJEFGADAT-JBKQDOAHSA-N

> <SMILES>
C(C[C@]1(O)CC[C@H]2[C@@H]3CCC4=CCCC[C@@H]4[C@H]3CC[C@@]21C)O

> <Synonyms>


> <PUBCHEM_CID>


> <Molecular_formula>
C20H32O2

> <Major_Isotope_Mass>
304.240230264

> <ALogP>
3.6476999999999986

> <Lipinski_Violations>
1

> <Insecticide_Likeness_Violations>
0

> <Post_Em_Herbicide_Likeness_Violations>
0

> <Metabolite_ID>
BTM00007

> <Reaction>
Hydroxylation of terminal methyl

> <Reaction_ID>
BTMR1061

> <Enzyme(s)>
CYP1A2
CYP2A6
CYP2B6
CYP2C8
CYP2C9
CYP2C19
CYP2D6
CYP2E1
CYP3A4

> <Biosystem>
HUMAN

> <Precursor_ID>


> <Precursor_SMILES>
CC[C@]1(O)CC[C@H]2[C@@H]3CCC4=CCCC[C@@H]4[C@H]3CC[C@@]21C

> <Precursor_InChI>
InChI=1S/C20H32O/c1-3-20(21)13-11-18-17-9-8-14-6-4-5-7-15(14)16(17)10-12-19(18,20)2/h6,15-18,21H,3-5,7-13H2,1-2H3/t15-,16+,17+,18-,19-,20-/m0/s1

> <Precursor_InChIKey>
AOXRBFRFYPMWLR-XGXHKTLJSA-N

> <Precursor_ALogP>


> <Precursor_Major_Isotope_Mass>
288.2453

$$$$
BTM00008
  CDK     09122622092D

 21 24  0  0  1  0  0  0  0  0999 V2000
    5.3394    3.7714    0.0000 C   0  0  0  0  0  0  0  0  0  0  0  0
    5.3384    2.2714    0.0000 C   0  0  0  0  0  0  0  0  0  0  0  0
    4.0389    1.5223    0.0000 C   0  0  2  0  0  0  0  0  0  0  0  0
    3.0424    3.7714    0.0000 O   0  0  0  0  0  0  0  0  0  0  0  0
    4.9189    0.3123    0.0000 C   0  0  0  0  0  0  0  0  0  0  0  0
    4.0389   -0.8977    0.0000 C   0  0  0  0  0  0  0  0  0  0  0  0
    2.6089   -0.4377    0.0000 C   0  0  1  0  0  0  0  0  0  0  0  0
    1.3089   -1.1877    0.0000 C   0  0  2  0  0  0  0  0  0  0  0  0
    1.3089   -2.6877    0.0000 C   0  0  0  0  0  0  0  0  0  0  0  0
    0.0089   -3.4377    0.0000 C   0  0  0  0  0  0  0  0  0  0  0  0
   -1.2911   -2.6877    0.0000 C   0  0  0  0  0  0  0  0  0  0  0  0
   -2.5911   -3.4377    0.0000 C   0  0  0  0  0  0  0  0  0  0  0  0
   -3.8911   -2.6877    0.0000 C   0  0  0  0  0  0  0  0  0  0  0  0
   -3.8911   -1.1877    0.0000 C   0  0  0  0  0  0  0  0  0  0  0  0
   -2.5911   -0.4377    0.0000 C   0  0  0  0  0  0  0  0  0  0  0  0
   -1.2911   -1.1877    0.0000 C   0  0  2  0  0  0  0  0  0  0  0  0
    0.0089   -0.4377    0.0000 C   0  0  1  0  0  0  0  0  0  0  0  0
    0.0089    1.0623    0.0000 C   0  0  0  0  0  0  0  0  0  0  0  0
    1.3089    1.8123    0.0000 C   0  0  0  0  0  0  0  0  0  0  0  0
    2.6089    1.0623    0.0000 C   0  0  2  0  0  0  0  0  0  0  0  0
    3.6075   -0.0570    0.0000 C   0  0  0  0  0  0  0  0  0  0  0  0
  1  2  2  0  0  0  0
  3  2  1  6  0  0  0
  3  4  1  1  0  0  0
  3  5  1  0  0  0  0
  5  6  1  0  0  0  0
  7  6  1  1  0  0  0
  7  8  1  0  0  0  0
  8  9  1  6  0  0  0
  9 10  1  0  0  0  0
 10 11  1  0  0  0  0
 11 12  2  0  0  0  0
 12 13  1  0  0  0  0
 13 14  1  0  0  0  0
 14 15  1  0  0  0  0
 16 15  1  6  0  0  0
 11 16  1  0  0  0  0
 16 17  1  0  0  0  0
  8 17  1  0  0  0  0
 17 18  1  1  0  0  0
 18 19  1  0  0  0  0
 19 20  1  0  0  0  0
  7 20  1  0  0  0  0
  3 20  1  0  0  0  0
 20 21  1  1  0  0  0
M  END
> <InChI>
InChI=1S/C20H30O/c1-3-20(21)13-11-18-17-9-8-14-6-4-5-7-15(14)16(17)10-12-19(18,20)2/h3,6,15-18,21H,1,4-5,7-13H2,2H3/t15-,16+,17+,18-,19-,20-/m0/s1

> <InChIKey>
LLIIIKMGXORJDH-XGXHKTLJSA-N

> <SMILES>
C=C[C@]1(O)CC[C@H]2[C@@H]3CCC4=CCCC[C@@H]4[C@H]3CC[C@@]21C

> <Synonyms>


> <PUBCHEM_CID>


> <Molecular_formula>
C20H30O

> <Major_Isotope_Mass>
286.22966557999996

> <ALogP>
4.7414999999999985

> <Lipinski_Violations>
1

> <Insecticide_Likeness_Violations>
0

> <Post_Em_Herbicide_Likeness_Violations>
0

> <Metabolite_ID>
BTM00008

> <Reaction>
Terminal desaturation

> <Reaction_ID>
BTMR1190

> <Enzyme(s)>
CYP1A2
CYP2A6
CYP2C9
CYP2D6
CYP3A4

> <Biosystem>
HUMAN

> <Precursor_ID>


> <Precursor_SMILES>
CC[C@]1(O)CC[C@H]2[C@@H]3CCC4=CCCC[C@@H]4[C@H]3CC[C@@]21C

> <Precursor_InChI>
InChI=1S/C20H32O/c1-3-20(21)13-11-18-17-9-8-14-6-4-5-7-15(14)16(17)10-12-19(18,20)2/h6,15-18,21H,3-5,7-13H2,1-2H3/t15-,16+,17+,18-,19-,20-/m0/s1

> <Precursor_InChIKey>
AOXRBFRFYPMWLR-XGXHKTLJSA-N

> <Precursor_ALogP>


> <Precursor_Major_Isotope_Mass>
288.2453

$$$$
BTM00009
  CDK     09122622092D

 22 25  0  0  1  0  0  0  0  0999 V2000
    5.3394    3.7714    0.0000 C   0  0  0  0  0  0  0  0  0  0  0  0
    5.3384    2.2714    0.0000 C   0  0  0  0  0  0  0  0  0  0  0  0
    4.0389    1.5223    0.0000 C   0  0  2  0  0  0  0  0  0  0  0  0
    3.0424    3.7714    0.0000 O   0  0  0  0  0  0  0  0  0  0  0  0
    4.9189    0.3123    0.0000 C   0  0  0  0  0  0  0  0  0  0  0  0
    4.0389   -0.8977    0.0000 C   0  0  0  0  0  0  0  0  0  0  0  0
    2.6089   -0.4377    0.0000 C   0  0  1  0  0  0  0  0  0  0  0  0
    1.3089   -1.1877    0.0000 C   0  0  2  0  0  0  0  0  0  0  0  0
    1.3089   -2.6877    0.0000 C   0  0  0  0  0  0  0  0  0  0  0  0
    0.0089   -3.4377    0.0000 C   0  0  0  0  0  0  0  0  0  0  0  0
   -1.2911   -2.6877    0.0000 C   0  0  0  0  0  0  0  0  0  0  0  0
   -2.5911   -3.4377    0.0000 C   0  0  0  0  0  0  0  0  0  0  0  0
   -3.8911   -2.6877    0.0000 C   0  0  0  0  0  0  0  0  0  0  0  0
   -3.8911   -1.1877    0.0000 C   0  0  0  0  0  0  0  0  0  0  0  0
   -2.5911   -0.4377    0.0000 C   0  0  0  0  0  0  0  0  0  0  0  0
   -1.2911   -1.1877    0.0000 C   0  0  2  0  0  0  0  0  0  0  0  0
    0.0089   -0.4377    0.0000 C   0  0  1  0  0  0  0  0  0  0  0  0
    0.0089    1.0623    0.0000 C   0  0  0  0  0  0  0  0  0  0  0  0
    1.3089    1.8123    0.0000 C   0  0  0  0  0  0  0  0  0  0  0  0
    2.6089    1.0623    0.0000 C   0  0  2  0  0  0  0  0  0  0  0  0
    3.6075   -0.0570    0.0000 C   0  0  0  0  0  0  0  0  0  0  0  0
    0.0089   -4.9377    0.0000 O   0  0  0  0  0  0  0  0  0  0  0  0
  1  2  1  0  0  0  0
  3  2  1  6  0  0  0
  3  4  1  1  0  0  0
  3  5  1  0  0  0  0
  5  6  1  0  0  0  0
  7  6  1  1  0  0  0
  7  8  1  0  0  0  0
  8  9  1  6  0  0  0
  9 10  1  0  0  0  0
 10 11  1  0  0  0  0
 11 12  2  0  0  0  0
 12 13  1  0  0  0  0
 13 14  1  0  0  0  0
 14 15  1  0  0  0  0
 16 15  1  6  0  0  0
 11 16  1  0  0  0  0
 16 17  1  0  0  0  0
  8 17  1  0  0  0  0
 17 18  1  1  0  0  0
 18 19  1  0  0  0  0
 19 20  1  0  0  0  0
  7 20  1  0  0  0  0
  3 20  1  0  0  0  0
 20 21  1  1  0  0  0
 22 10  1  0  0  0  0
M  END
> <InChI>
InChI=1S/C20H32O2/c1-3-20(22)11-9-17-16-12-18(21)15-7-5-4-6-13(15)14(16)8-10-19(17,20)2/h7,13-14,16-18,21-22H,3-6,8-12H2,1-2H3/t13-,14-,16-,17+,18?,19+,20+/m1/s1

> <InChIKey>
LDERGFDUHXOEMU-QGJVTZOBSA-N

> <SMILES>
CC[C@]1(O)CC[C@H]2[C@@H]3CC(C4=CCCC[C@@H]4[C@H]3CC[C@@]21C)O

> <Synonyms>


> <PUBCHEM_CID>


> <Molecular_formula>
C20H32O2

> <Major_Isotope_Mass>
304.240230264

> <ALogP>
3.895299999999997

> <Lipinski_Violations>
0

> <Insecticide_Likeness_Violations>
0

> <Post_Em_Herbicide_Likeness_Violations>
0

> <Metabolite_ID>
BTM00009

> <Reaction>
6-Hydroxylation of sterol

> <Reaction_ID>
BTMR0402

> <Enzyme(s)>
CYP2A6
CYP2B6
CYP2C8
CYP2C9
CYP2C19
CYP2D6
CYP3A4

> <Biosystem>
HUMAN

> <Precursor_ID>


> <Precursor_SMILES>
CC[C@]1(O)CC[C@H]2[C@@H]3CCC4=CCCC[C@@H]4[C@H]3CC[C@@]21C

> <Precursor_InChI>
InChI=1S/C20H32O/c1-3-20(21)13-11-18-17-9-8-14-6-4-5-7-15(14)16(17)10-12-19(18,20)2/h6,15-18,21H,3-5,7-13H2,1-2H3/t15-,16+,17+,18-,19-,20-/m0/s1

> <Precursor_InChIKey>
AOXRBFRFYPMWLR-XGXHKTLJSA-N

> <Precursor_ALogP>


> <Precursor_Major_Isotope_Mass>
288.2453

$$$$
BTM00010
  CDK     09122622092D

 22 25  0  0  1  0  0  0  0  0999 V2000
    4.9505    4.6491    0.0000 C   0  0  0  0  0  0  0  0  0  0  0  0
    4.9495    3.1491    0.0000 C   0  0  0  0  0  0  0  0  0  0  0  0
    3.6500    2.4000    0.0000 C   0  0  2  0  0  0  0  0  0  0  0  0
    3.2897    3.8561    0.0000 O   0  0  0  0  0  0  0  0  0  0  0  0
    4.5300    1.1900    0.0000 C   0  0  0  0  0  0  0  0  0  0  0  0
    3.6500   -0.0200    0.0000 C   0  0  0  0  0  0  0  0  0  0  0  0
    2.2200    0.4400    0.0000 C   0  0  1  0  0  0  0  0  0  0  0  0
    0.9200   -0.3100    0.0000 C   0  0  2  0  0  0  0  0  0  0  0  0
    0.9200   -1.8100    0.0000 C   0  0  0  0  0  0  0  0  0  0  0  0
   -0.3800   -2.5600    0.0000 C   0  0  0  0  0  0  0  0  0  0  0  0
   -1.6800   -1.8100    0.0000 C   0  0  0  0  0  0  0  0  0  0  0  0
   -2.9800   -2.5600    0.0000 C   0  0  0  0  0  0  0  0  0  0  0  0
   -4.2800   -1.8100    0.0000 C   0  0  0  0  0  0  0  0  0  0  0  0
   -4.2800   -0.3100    0.0000 C   0  0  0  0  0  0  0  0  0  0  0  0
   -2.9800    0.4400    0.0000 C   0  0  0  0  0  0  0  0  0  0  0  0
   -1.6800   -0.3100    0.0000 C   0  0  2  0  0  0  0  0  0  0  0  0
   -0.3800    0.4400    0.0000 C   0  0  1  0  0  0  0  0  0  0  0  0
   -0.3800    1.9400    0.0000 C   0  0  0  0  0  0  0  0  0  0  0  0
    0.9200    2.6900    0.0000 C   0  0  0  0  0  0  0  0  0  0  0  0
    2.2200    1.9400    0.0000 C   0  0  2  0  0  0  0  0  0  0  0  0
    2.3787    3.4316    0.0000 C   0  0  0  0  0  0  0  0  0  0  0  0
    1.1664    4.3148    0.0000 O   0  0  0  0  0  0  0  0  0  0  0  0
  1  2  1  0  0  0  0
  3  2  1  6  0  0  0
  3  4  1  1  0  0  0
  3  5  1  0  0  0  0
  5  6  1  0  0  0  0
  7  6  1  1  0  0  0
  7  8  1  0  0  0  0
  8  9  1  6  0  0  0
  9 10  1  0  0  0  0
 10 11  1  0  0  0  0
 11 12  2  0  0  0  0
 12 13  1  0  0  0  0
 13 14  1  0  0  0  0
 14 15  1  0  0  0  0
 16 15  1  6  0  0  0
 11 16  1  0  0  0  0
 16 17  1  0  0  0  0
  8 17  1  0  0  0  0
 17 18  1  1  0  0  0
 18 19  1  0  0  0  0
 19 20  1  0  0  0  0
  7 20  1  0  0  0  0
  3 20  1  0  0  0  0
 20 21  1  1  0  0  0
 22 21  1  0  0  0  0
M  END
> <InChI>
InChI=1S/C20H32O2/c1-2-20(22)12-10-18-17-8-7-14-5-3-4-6-15(14)16(17)9-11-19(18,20)13-21/h5,15-18,21-22H,2-4,6-13H2,1H3/t15-,16+,17+,18-,19+,20-/m0/s1

> <InChIKey>
KBMQRFDLQBFNRN-BIEDPOGDSA-N

> <SMILES>
CC[C@]1(O)CC[C@H]2[C@@H]3CCC4=CCCC[C@@H]4[C@H]3CC[C@@]21CO

> <Synonyms>


> <PUBCHEM_CID>


> <Molecular_formula>
C20H32O2

> <Major_Isotope_Mass>
304.240230264

> <ALogP>
3.9064999999999985

> <Lipinski_Violations>
1

> <Insecticide_Likeness_Violations>
0

> <Post_Em_Herbicide_Likeness_Violations>
0

> <Metabolite_ID>
BTM00010

> <Reaction>
Hydroxylation of methyl carbon adjacent to aliphatic ring

> <Reaction_ID>
BTMR0054

> <Enzyme(s)>
CYP2B6
CYP2C8
CYP2C9
CYP2C19
CYP2D6
CYP3A4

> <Biosystem>
HUMAN

> <Precursor_ID>


> <Precursor_SMILES>
CC[C@]1(O)CC[C@H]2[C@@H]3CCC4=CCCC[C@@H]4[C@H]3CC[C@@]21C

> <Precursor_InChI>
InChI=1S/C20H32O/c1-3-20(21)13-11-18-17-9-8-14-6-4-5-7-15(14)16(17)10-12-19(18,20)2/h6,15-18,21H,3-5,7-13H2,1-2H3/t15-,16+,17+,18-,19-,20-/m0/s1

> <Precursor_InChIKey>
AOXRBFRFYPMWLR-XGXHKTLJSA-N

> <Precursor_ALogP>


> <Precursor_Major_Isotope_Mass>
288.2453

$$$$
