BTM00001
  CDK     09122622082D

 22 25  0  0  1  0  0  0  0  0999 V2000
    2.2189   -2.5602    0.0000 C   0  0  0  0  0  0  0  0  0  0  0  0
    0.9200   -1.8100    0.0000 C   0  0  2  0  0  0  0  0  0  0  0  0
   -0.3800   -2.5600    0.0000 C   0  0  0  0  0  0  0  0  0  0  0  0
   -1.6800   -1.8100    0.0000 C   0  0  0  0  0  0  0  0  0  0  0  0
   -2.9800   -2.5600    0.0000 C   0  0  0  0  0  0  0  0  0  0  0  0
   -4.2800   -1.8100    0.0000 C   0  0  0  0  0  0  0  0  0  0  0  0
   -5.5789   -2.5602    0.0000 O   0  0  0  0  0  0  0  0  0  0  0  0
   -4.2800   -0.3100    0.0000 C   0  0  0  0  0  0  0  0  0  0  0  0
   -2.9800    0.4400    0.0000 C   0  0  0  0  0  0  0  0  0  0  0  0
   -1.6800   -0.3100    0.0000 C   0  0  2  0  0  0  0  0  0  0  0  0
   -0.3800    0.4400    0.0000 C   0  0  2  0  0  0  0  0  0  0  0  0
    0.9200   -0.3100    0.0000 C   0  0  2  0  0  0  0  0  0  0  0  0
    2.2200    0.4400    0.0000 C   0  0  2  0  0  0  0  0  0  0  0  0
    3.6500   -0.0200    0.0000 C   0  0  0  0  0  0  0  0  0  0  0  0
    4.5300    1.1900    0.0000 C   0  0  0  0  0  0  0  0  0  0  0  0
    3.6500    2.4000    0.0000 C   0  0  2  0  0  0  0  0  0  0  0  0
    4.1153    3.8260    0.0000 O   0  0  0  0  0  0  0  0  0  0  0  0
    2.2200    1.9400    0.0000 C   0  0  2  0  0  0  0  0  0  0  0  0
    2.3787    3.4316    0.0000 C   0  0  0  0  0  0  0  0  0  0  0  0
    0.9200    2.6900    0.0000 C   0  0  0  0  0  0  0  0  0  0  0  0
   -0.3800    1.9400    0.0000 C   0  0  2  0  0  0  0  0  0  0  0  0
   -1.6789    2.6902    0.0000 C   0  0  0  0  0  0  0  0  0  0  0  0
  2  1  1  6  0  0  0
  2  3  1  0  0  0  0
  3  4  1  0  0  0  0
  4  5  2  0  0  0  0
  5  6  1  0  0  0  0
  6  7  1  0  0  0  0
  6  8  1  0  0  0  0
  8  9  1  0  0  0  0
 10  9  1  6  0  0  0
  4 10  1  0  0  0  0
 11 10  1  1  0  0  0
 11 12  1  0  0  0  0
 12  2  1  6  0  0  0
 12 13  1  0  0  0  0
 13 14  1  1  0  0  0
 14 15  1  0  0  0  0
 15 16  1  0  0  0  0
 16 17  1  1  0  0  0
 16 18  1  0  0  0  0
 13 18  1  0  0  0  0
 18 19  1  1  0  0  0
 18 20  1  0  0  0  0
 21 20  1  0  0  0  0
 11 21  1  0  0  0  0
 21 22  1  1  0  0  0
M  END
> <InChI>
InChI=1S/C20H32O2/c1-11-8-13-9-14(21)4-5-15(13)18-12(2)10-20(3)16(19(11)18)6-7-17(20)22/h9,11-12,14-19,21-22H,4-8,10H2,1-3H3/t11-,12+,14?,15+,16+,17+,18-,19+,20+/m1/s1

> <InChIKey>
YJXBJTNNOBRSQQ-CRUKRIPCSA-N

> <SMILES>
C[C@@H]1CC2=CC(O)CC[C@@H]2[C@@H]3[C@@H]1[C@@H]4CC[C@H](O)[C@@]4(C)C[C@@H]3C

> <Synonyms>


> <PUBCHEM_CID>


> <Molecular_formula>
C20H32O2

> <Major_Isotope_Mass>
304.240230264

> <ALogP>
3.6701999999999986

> <Lipinski_Violations>
0

> <Insecticide_Likeness_Violations>
0

> <Post_Em_Herbicide_Likeness_Violations>
0

> <Metabolite_ID>
BTM00001

> <Reaction>
Reduction of carbonyl

> <Reaction_ID>
BTMR0368

> <Enzyme(s)>
EC 1.1.1.184

> <Biosystem>
HUMAN

> <Precursor_ID>


> <Precursor_SMILES>
C[C@@H]1CC2=CC(=O)CC[C@@H]2[C@@H]3[C@@H]1[C@@H]4CC[C@H](O)[C@@]4(C)C[C@@H]3C

> <Precursor_InChI>
InChI=1S/C20H30O2/c1-11-8-13-9-14(21)4-5-15(13)18-12(2)10-20(3)16(19(11)18)6-7-17(20)22/h9,11-12,15-19,22H,4-8,10H2,1-3H3/t11-,12+,15+,16+,17+,18-,19+,20+/m1/s1

> <Precursor_InChIKey>
KVIKZOGGZHCGFH-RJMNTABLSA-N

> <Precursor_ALogP>


> <Precursor_Major_Isotope_Mass>
302.2245

$$$$
BTM00002
  CDK     09122622082D

 22 25  0  0  1  0  0  0  0  0999 V2000
    2.2189   -2.5602    0.0000 C   0  0  0  0  0  0  0  0  0  0  0  0
    0.9200   -1.8100    0.0000 C   0  0  2  0  0  0  0  0  0  0  0  0
   -0.3800   -2.5600    0.0000 C   0  0  0  0  0  0  0  0  0  0  0  0
   -1.6800   -1.8100    0.0000 C   0  0  0  0  0  0  0  0  0  0  0  0
   -2.9800   -2.5600    0.0000 C   0  0  0  0  0  0  0  0  0  0  0  0
   -4.2800   -1.8100    0.0000 C   0  0  0  0  0  0  0  0  0  0  0  0
   -5.5789   -2.5602    0.0000 O   0  0  0  0  0  0  0  0  0  0  0  0
   -4.2800   -0.3100    0.0000 C   0  0  0  0  0  0  0  0  0  0  0  0
   -2.9800    0.4400    0.0000 C   0  0  0  0  0  0  0  0  0  0  0  0
   -1.6800   -0.3100    0.0000 C   0  0  2  0  0  0  0  0  0  0  0  0
   -0.3800    0.4400    0.0000 C   0  0  2  0  0  0  0  0  0  0  0  0
    0.9200   -0.3100    0.0000 C   0  0  2  0  0  0  0  0  0  0  0  0
    2.2200    0.4400    0.0000 C   0  0  2  0  0  0  0  0  0  0  0  0
    3.6500   -0.0200    0.0000 C   0  0  0  0  0  0  0  0  0  0  0  0
    4.5300    1.1900    0.0000 C   0  0  0  0  0  0  0  0  0  0  0  0
    3.6500    2.4000    0.0000 C   0  0  0  0  0  0  0  0  0  0  0  0
    4.1153    3.8260    0.0000 O   0  0  0  0  0  0  0  0  0  0  0  0
    2.2200    1.9400    0.0000 C   0  0  2  0  0  0  0  0  0  0  0  0
    2.3787    3.4316    0.0000 C   0  0  0  0  0  0  0  0  0  0  0  0
    0.9200    2.6900    0.0000 C   0  0  0  0  0  0  0  0  0  0  0  0
   -0.3800    1.9400    0.0000 C   0  0  2  0  0  0  0  0  0  0  0  0
   -1.6789    2.6902    0.0000 C   0  0  0  0  0  0  0  0  0  0  0  0
  2  1  1  6  0  0  0
  2  3  1  0  0  0  0
  3  4  1  0  0  0  0
  4  5  2  0  0  0  0
  5  6  1  0  0  0  0
  6  7  2  0  0  0  0
  6  8  1  0  0  0  0
  8  9  1  0  0  0  0
 10  9  1  6  0  0  0
  4 10  1  0  0  0  0
 11 10  1  1  0  0  0
 11 12  1  0  0  0  0
 12  2  1  6  0  0  0
 12 13  1  0  0  0  0
 13 14  1  1  0  0  0
 14 15  1  0  0  0  0
 15 16  1  0  0  0  0
 16 17  2  0  0  0  0
 16 18  1  0  0  0  0
 13 18  1  0  0  0  0
 18 19  1  1  0  0  0
 18 20  1  0  0  0  0
 21 20  1  0  0  0  0
 11 21  1  0  0  0  0
 21 22  1  1  0  0  0
M  END
> <InChI>
InChI=1S/C20H28O2/c1-11-8-13-9-14(21)4-5-15(13)18-12(2)10-20(3)16(19(11)18)6-7-17(20)22/h9,11-12,15-16,18-19H,4-8,10H2,1-3H3/t11-,12+,15+,16+,18-,19+,20+/m1/s1

> <InChIKey>
WAXOHGVTAWJVFG-TYAMLSIBSA-N

> <SMILES>
C[C@@H]1CC2=CC(=O)CC[C@@H]2[C@@H]3[C@@H]1[C@@H]4CCC(=O)[C@@]4(C)C[C@@H]3C

> <Synonyms>


> <PUBCHEM_CID>


> <Molecular_formula>
C20H28O2

> <Major_Isotope_Mass>
300.208930136

> <ALogP>
3.5911999999999975

> <Lipinski_Violations>
0

> <Insecticide_Likeness_Violations>
0

> <Post_Em_Herbicide_Likeness_Violations>
0

> <Metabolite_ID>
BTM00002

> <Reaction>
Dehydrogenation of 17-beta-hydroxysteroid

> <Reaction_ID>
BTMR0370

> <Enzyme(s)>
EC 1.1.1.239

> <Biosystem>
HUMAN

> <Precursor_ID>


> <Precursor_SMILES>
C[C@@H]1CC2=CC(=O)CC[C@@H]2[C@@H]3[C@@H]1[C@@H]4CC[C@H](O)[C@@]4(C)C[C@@H]3C

> <Precursor_InChI>
InChI=1S/C20H30O2/c1-11-8-13-9-14(21)4-5-15(13)18-12(2)10-20(3)16(19(11)18)6-7-17(20)22/h9,11-12,15-19,22H,4-8,10H2,1-3H3/t11-,12+,15+,16+,17+,18-,19+,20+/m1/s1

> <Precursor_InChIKey>
KVIKZOGGZHCGFH-RJMNTABLSA-N

> <Precursor_ALogP>


> <Precursor_Major_Isotope_Mass>
302.2245

$$$$
BTM00003
  CDK     09122622082D

 34 38  0  0  1  0  0  0  0  0999 V2000
    2.2189   -2.5602    0.0000 C   0  0  0  0  0  0  0  0  0  0  0  0
    0.9200   -1.8100    0.0000 C   0  0  2  0  0  0  0  0  0  0  0  0
   -0.3800   -2.5600    0.0000 C   0  0  0  0  0  0  0  0  0  0  0  0
   -1.6800   -1.8100    0.0000 C   0  0  0  0  0  0  0  0  0  0  0  0
   -2.9800   -2.5600    0.0000 C   0  0  0  0  0  0  0  0  0  0  0  0
   -4.2800   -1.8100    0.0000 C   0  0  0  0  0  0  0  0  0  0  0  0
   -5.5789   -2.5602    0.0000 O   0  0  0  0  0  0  0  0  0  0  0  0
   -4.2800   -0.3100    0.0000 C   0  0  0  0  0  0  0  0  0  0  0  0
   -2.9800    0.4400    0.0000 C   0  0  0  0  0  0  0  0  0  0  0  0
   -1.6800   -0.3100    0.0000 C   0  0  2  0  0  0  0  0  0  0  0  0
   -0.3800    0.4400    0.0000 C   0  0  2  0  0  0  0  0  0  0  0  0
    0.9200   -0.3100    0.0000 C   0  0  2  0  0  0  0  0  0  0  0  0
    2.2200    0.4400    0.0000 C   0  0  2  0  0  0  0  0  0  0  0  0
    3.6500   -0.0200    0.0000 C   0  0  0  0  0  0  0  0  0  0  0  0
    4.5300    1.1900    0.0000 C   0  0  0  0  0  0  0  0  0  0  0  0
    3.6500    2.4000    0.0000 C   0  0  2  0  0  0  0  0  0  0  0  0
    4.1153    3.8260    0.0000 O   0  0  0  0  0  0  0  0  0  0  0  0
    2.2200    1.9400    0.0000 C   0  0  2  0  0  0  0  0  0  0  0  0
    2.3787    3.4316    0.0000 C   0  0  0  0  0  0  0  0  0  0  0  0
    0.9200    2.6900    0.0000 C   0  0  0  0  0  0  0  0  0  0  0  0
   -0.3800    1.9400    0.0000 C   0  0  2  0  0  0  0  0  0  0  0  0
   -1.6789    2.6902    0.0000 C   0  0  0  0  0  0  0  0  0  0  0  0
    5.0521    6.6710    0.0000 O   0  0  0  0  0  0  0  0  0  0  0  0
    6.0499    5.5510    0.0000 C   0  0  0  0  0  0  0  0  0  0  0  0
    7.5416    5.8589    0.0000 C   0  0  0  0  0  0  0  0  0  0  0  0
    8.0166    7.2817    0.0000 O   0  0  0  0  0  0  0  0  0  0  0  0
    8.5379    4.7297    0.0000 C   0  0  0  0  0  0  0  0  0  0  0  0
   10.0074    5.0307    0.0000 O   0  0  0  0  0  0  0  0  0  0  0  0
    8.0708    3.3148    0.0000 C   0  0  0  0  0  0  0  0  0  0  0  0
    6.6013    3.0101    0.0000 O   0  0  0  0  0  0  0  0  0  0  0  0
    5.5829    4.1361    0.0000 C   0  0  0  0  0  0  0  0  0  0  0  0
    9.0691    2.1952    0.0000 C   0  0  0  0  0  0  0  0  0  0  0  0
   10.5378    2.5000    0.0000 O   0  0  0  0  0  0  0  0  0  0  0  0
    8.5987    0.7709    0.0000 O   0  0  0  0  0  0  0  0  0  0  0  0
  2  1  1  6  0  0  0
  2  3  1  0  0  0  0
  3  4  1  0  0  0  0
  4  5  2  0  0  0  0
  5  6  1  0  0  0  0
  6  7  2  0  0  0  0
  6  8  1  0  0  0  0
  8  9  1  0  0  0  0
 10  9  1  6  0  0  0
  4 10  1  0  0  0  0
 11 10  1  1  0  0  0
 11 12  1  0  0  0  0
 12  2  1  6  0  0  0
 12 13  1  0  0  0  0
 13 14  1  1  0  0  0
 14 15  1  0  0  0  0
 15 16  1  0  0  0  0
 16 17  1  1  0  0  0
 16 18  1  0  0  0  0
 13 18  1  0  0  0  0
 18 19  1  1  0  0  0
 18 20  1  0  0  0  0
 21 20  1  0  0  0  0
 11 21  1  0  0  0  0
 21 22  1  1  0  0  0
 23 24  1  0  0  0  0
 24 25  1  0  0  0  0
 25 26  1  0  0  0  0
 25 27  1  0  0  0  0
 27 28  1  0  0  0  0
 27 29  1  0  0  0  0
 29 30  1  0  0  0  0
 30 31  1  0  0  0  0
 24 31  1  0  0  0  0
 31 17  1  0  0  0  0
 29 32  1  0  0  0  0
 32 33  1  0  0  0  0
 32 34  2  0  0  0  0
M  END
> <InChI>
InChI=1S/C26H38O8/c1-11-8-13-9-14(27)4-5-15(13)18-12(2)10-26(3)16(19(11)18)6-7-17(26)33-25-22(30)20(28)21(29)23(34-25)24(31)32/h9,11-12,15-23,25,28-30H,4-8,10H2,1-3H3,(H,31,32)/t11-,12+,15+,16+,17+,18-,19+,20?,21?,22?,23?,25?,26+/m1/s1

> <InChIKey>
GMTAGNZAYRWVRL-VPXXJQHOSA-N

> <SMILES>
C[C@@H]1CC2=CC(=O)CC[C@@H]2[C@@H]3[C@@H]1[C@@H]4CC[C@H](OC5OC(C(C(C5O)O)O)C(O)=O)[C@@]4(C)C[C@@H]3C

> <Synonyms>


> <PUBCHEM_CID>


> <Molecular_formula>
C26H38O8

> <Major_Isotope_Mass>
478.25666817599995

> <ALogP>
2.0926999999999976

> <Lipinski_Violations>
0

> <Insecticide_Likeness_Violations>
1

> <Post_Em_Herbicide_Likeness_Violations>
1

> <Metabolite_ID>
BTM00003

> <Reaction>
17-OH-Glucuronidation of sterol

> <Reaction_ID>
BTMR0163

> <Enzyme(s)>
EC 2.4.1.17

> <Biosystem>
HUMAN

> <Precursor_ID>


> <Precursor_SMILES>
C[C@@H]1CC2=CC(=O)CC[C@@H]2[C@@H]3[C@@H]1[C@@H]4CC[C@H](O)[C@@]4(C)C[C@@H]3C

> <Precursor_InChI>
InChI=1S/C20H30O2/c1-11-8-13-9-14(21)4-5-15(13)18-12(2)10-20(3)16(19(11)18)6-7-17(20)22/h9,11-12,15-19,22H,4-8,10H2,1-3H3/t11-,12+,15+,16+,17+,18-,19+,20+/m1/s1

> <Precursor_InChIKey>
KVIKZOGGZHCGFH-RJMNTABLSA-N

> <Precursor_ALogP>


> <Precursor_Major_Isotope_Mass>
302.2245

$$$$
BTM00004
  CDK     09122622082D

 23 26  0  0  1  0  0  0  0  0999 V2000
    2.2189   -2.5602    0.0000 C   0  0  0  0  0  0  0  0  0  0  0  0
    0.9200   -1.8100    0.0000 C   0  0  2  0  0  0  0  0  0  0  0  0
   -0.3800   -2.5600    0.0000 C   0  0  0  0  0  0  0  0  0  0  0  0
   -1.6800   -1.8100    0.0000 C   0  0  0  0  0  0  0  0  0  0  0  0
   -2.9800   -2.5600    0.0000 C   0  0  0  0  0  0  0  0  0  0  0  0
   -4.2800   -1.8100    0.0000 C   0  0  0  0  0  0  0  0  0  0  0  0
   -5.5789   -2.5602    0.0000 O   0  0  0  0  0  0  0  0  0  0  0  0
   -4.2800   -0.3100    0.0000 C   0  0  0  0  0  0  0  0  0  0  0  0
   -2.9800    0.4400    0.0000 C   0  0  0  0  0  0  0  0  0  0  0  0
   -1.6800   -0.3100    0.0000 C   0  0  2  0  0  0  0  0  0  0  0  0
   -0.3800    0.4400    0.0000 C   0  0  2  0  0  0  0  0  0  0  0  0
    0.9200   -0.3100    0.0000 C   0  0  2  0  0  0  0  0  0  0  0  0
    2.2200    0.4400    0.0000 C   0  0  2  0  0  0  0  0  0  0  0  0
    3.6500   -0.0200    0.0000 C   0  0  0  0  0  0  0  0  0  0  0  0
    4.5300    1.1900    0.0000 C   0  0  0  0  0  0  0  0  0  0  0  0
    3.6500    2.4000    0.0000 C   0  0  2  0  0  0  0  0  0  0  0  0
    4.1153    3.8260    0.0000 O   0  0  0  0  0  0  0  0  0  0  0  0
    2.2200    1.9400    0.0000 C   0  0  2  0  0  0  0  0  0  0  0  0
    2.3787    3.4316    0.0000 C   0  0  0  0  0  0  0  0  0  0  0  0
    0.9200    2.6900    0.0000 C   0  0  0  0  0  0  0  0  0  0  0  0
   -0.3800    1.9400    0.0000 C   0  0  2  0  0  0  0  0  0  0  0  0
   -1.6789    2.6902    0.0000 C   0  0  0  0  0  0  0  0  0  0  0  0
    6.0300    1.1900    0.0000 O   0  0  0  0  0  0  0  0  0  0  0  0
  2  1  1  6  0  0  0
  2  3  1  0  0  0  0
  3  4  1  0  0  0  0
  4  5  2  0  0  0  0
  5  6  1  0  0  0  0
  6  7  2  0  0  0  0
  6  8  1  0  0  0  0
  8  9  1  0  0  0  0
 10  9  1  6  0  0  0
  4 10  1  0  0  0  0
 11 10  1  1  0  0  0
 11 12  1  0  0  0  0
 12  2  1  6  0  0  0
 12 13  1  0  0  0  0
 13 14  1  1  0  0  0
 14 15  1  0  0  0  0
 15 16  1  0  0  0  0
 16 17  1  1  0  0  0
 16 18  1  0  0  0  0
 13 18  1  0  0  0  0
 18 19  1  1  0  0  0
 18 20  1  0  0  0  0
 21 20  1  0  0  0  0
 11 21  1  0  0  0  0
 21 22  1  1  0  0  0
 23 15  1  0  0  0  0
M  END
> <InChI>
InChI=1S/C20H30O3/c1-10-6-12-7-13(21)4-5-14(12)17-11(2)9-20(3)15(18(10)17)8-16(22)19(20)23/h7,10-11,14-19,22-23H,4-6,8-9H2,1-3H3/t10-,11+,14+,15+,16?,17-,18+,19+,20+/m1/s1

> <InChIKey>
QOJOXWCAJSPACP-QLKKNTNMSA-N

> <SMILES>
C[C@@H]1CC2=CC(=O)CC[C@@H]2[C@@H]3[C@@H]1[C@@H]4CC([C@H](O)[C@@]4(C)C[C@@H]3C)O

> <Synonyms>


> <PUBCHEM_CID>


> <Molecular_formula>
C20H30O3

> <Major_Isotope_Mass>
318.21949481999997

> <ALogP>
2.6637999999999984

> <Lipinski_Violations>
0

> <Insecticide_Likeness_Violations>
0

> <Post_Em_Herbicide_Likeness_Violations>
0

> <Metabolite_ID>
BTM00004

> <Reaction>
16-Hydroxylation of sterol

> <Reaction_ID>
BTMR0407

> <Enzyme(s)>
CYP1A2
CYP2A6
CYP2B6
CYP2C8
CYP2C9
CYP2C19
CYP2D6
CYP2E1
CYP3A4

> <Biosystem>
HUMAN

> <Precursor_ID>


> <Precursor_SMILES>
C[C@@H]1CC2=CC(=O)CC[C@@H]2[C@@H]3[C@@H]1[C@@H]4CC[C@H](O)[C@@]4(C)C[C@@H]3C

> <Precursor_InChI>
InChI=1S/C20H30O2/c1-11-8-13-9-14(21)4-5-15(13)18-12(2)10-20(3)16(19(11)18)6-7-17(20)22/h9,11-12,15-19,22H,4-8,10H2,1-3H3/t11-,12+,15+,16+,17+,18-,19+,20+/m1/s1

> <Precursor_InChIKey>
KVIKZOGGZHCGFH-RJMNTABLSA-N

> <Precursor_ALogP>


> <Precursor_Major_Isotope_Mass>
302.2245

$$$$
BTM00005
  CDK     09122622082D

 23 26  0  0  1  0  0  0  0  0999 V2000
    2.2189   -2.5602    0.0000 C   0  0  0  0  0  0  0  0  0  0  0  0
    0.9200   -1.8100    0.0000 C   0  0  2  0  0  0  0  0  0  0  0  0
   -0.3800   -2.5600    0.0000 C   0  0  0  0  0  0  0  0  0  0  0  0
   -1.6800   -1.8100    0.0000 C   0  0  0  0  0  0  0  0  0  0  0  0
   -2.9800   -2.5600    0.0000 C   0  0  0  0  0  0  0  0  0  0  0  0
   -4.2800   -1.8100    0.0000 C   0  0  0  0  0  0  0  0  0  0  0  0
   -5.5789   -2.5602    0.0000 O   0  0  0  0  0  0  0  0  0  0  0  0
   -4.2800   -0.3100    0.0000 C   0  0  0  0  0  0  0  0  0  0  0  0
   -2.9800    0.4400    0.0000 C   0  0  0  0  0  0  0  0  0  0  0  0
   -1.6800   -0.3100    0.0000 C   0  0  2  0  0  0  0  0  0  0  0  0
   -0.3800    0.4400    0.0000 C   0  0  2  0  0  0  0  0  0  0  0  0
    0.9200   -0.3100    0.0000 C   0  0  2  0  0  0  0  0  0  0  0  0
    2.2200    0.4400    0.0000 C   0  0  2  0  0  0  0  0  0  0  0  0
    3.6500   -0.0200    0.0000 C   0  0  0  0  0  0  0  0  0  0  0  0
    4.5300    1.1900    0.0000 C   0  0  0  0  0  0  0  0  0  0  0  0
    3.6500    2.4000    0.0000 C   0  0  2  0  0  0  0  0  0  0  0  0
    4.1153    3.8260    0.0000 O   0  0  0  0  0  0  0  0  0  0  0  0
    2.2200    1.9400    0.0000 C   0  0  2  0  0  0  0  0  0  0  0  0
    2.3787    3.4316    0.0000 C   0  0  0  0  0  0  0  0  0  0  0  0
    0.9200    2.6900    0.0000 C   0  0  0  0  0  0  0  0  0  0  0  0
   -0.3800    1.9400    0.0000 C   0  0  2  0  0  0  0  0  0  0  0  0
   -1.6789    2.6902    0.0000 C   0  0  0  0  0  0  0  0  0  0  0  0
   -5.5789    0.4402    0.0000 O   0  0  0  0  0  0  0  0  0  0  0  0
  2  1  1  6  0  0  0
  2  3  1  0  0  0  0
  3  4  1  0  0  0  0
  4  5  2  0  0  0  0
  5  6  1  0  0  0  0
  6  7  2  0  0  0  0
  6  8  1  0  0  0  0
  8  9  1  0  0  0  0
 10  9  1  6  0  0  0
  4 10  1  0  0  0  0
 11 10  1  1  0  0  0
 11 12  1  0  0  0  0
 12  2  1  6  0  0  0
 12 13  1  0  0  0  0
 13 14  1  1  0  0  0
 14 15  1  0  0  0  0
 15 16  1  0  0  0  0
 16 17  1  1  0  0  0
 16 18  1  0  0  0  0
 13 18  1  0  0  0  0
 18 19  1  1  0  0  0
 18 20  1  0  0  0  0
 21 20  1  0  0  0  0
 11 21  1  0  0  0  0
 21 22  1  1  0  0  0
 23  8  1  0  0  0  0
M  END
> <InChI>
InChI=1S/C20H30O3/c1-10-6-12-7-15(21)16(22)8-13(12)18-11(2)9-20(3)14(19(10)18)4-5-17(20)23/h7,10-11,13-14,16-19,22-23H,4-6,8-9H2,1-3H3/t10-,11+,13+,14+,16?,17+,18-,19+,20+/m1/s1

> <InChIKey>
HXEGWIICYQSMIO-IQOYROHRSA-N

> <SMILES>
C[C@@H]1CC2=CC(=O)C(C[C@@H]2[C@@H]3[C@@H]1[C@@H]4CC[C@H](O)[C@@]4(C)C[C@@H]3C)O

> <Synonyms>


> <PUBCHEM_CID>


> <Molecular_formula>
C20H30O3

> <Major_Isotope_Mass>
318.21949481999997

> <ALogP>
2.950199999999999

> <Lipinski_Violations>
0

> <Insecticide_Likeness_Violations>
0

> <Post_Em_Herbicide_Likeness_Violations>
0

> <Metabolite_ID>
BTM00005

> <Reaction>
2-Hydroxylation of sterol

> <Reaction_ID>
BTMR0398

> <Enzyme(s)>
CYP1A2
CYP2C19
CYP3A4

> <Biosystem>
HUMAN

> <Precursor_ID>


> <Precursor_SMILES>
C[C@@H]1CC2=CC(=O)CC[C@@H]2[C@@H]3[C@@H]1[C@@H]4CC[C@H](O)[C@@]4(C)C[C@@H]3C

> <Precursor_InChI>
InChI=1S/C20H30O2/c1-11-8-13-9-14(21)4-5-15(13)18-12(2)10-20(3)16(19(11)18)6-7-17(20)22/h9,11-12,15-19,22H,4-8,10H2,1-3H3/t11-,12+,15+,16+,17+,18-,19+,20+/m1/s1

> <Precursor_InChIKey>
KVIKZOGGZHCGFH-RJMNTABLSA-N

> <Precursor_ALogP>


> <Precursor_Major_Isotope_Mass>
302.2245

$$$$
BTM00006
  CDK     09122622082D

 23 26  0  0  1  0  0  0  0  0999 V2000
    2.2189   -2.5602    0.0000 C   0  0  0  0  0  0  0  0  0  0  0  0
    0.9200   -1.8100    0.0000 C   0  0  2  0  0  0  0  0  0  0  0  0
   -0.3800   -2.5600    0.0000 C   0  0  0  0  0  0  0  0  0  0  0  0
   -1.6800   -1.8100    0.0000 C   0  0  0  0  0  0  0  0  0  0  0  0
   -2.9800   -2.5600    0.0000 C   0  0  0  0  0  0  0  0  0  0  0  0
   -4.2800   -1.8100    0.0000 C   0  0  0  0  0  0  0  0  0  0  0  0
   -5.5789   -2.5602    0.0000 O   0  0  0  0  0  0  0  0  0  0  0  0
   -4.2800   -0.3100    0.0000 C   0  0  0  0  0  0  0  0  0  0  0  0
   -2.9800    0.4400    0.0000 C   0  0  0  0  0  0  0  0  0  0  0  0
   -1.6800   -0.3100    0.0000 C   0  0  2  0  0  0  0  0  0  0  0  0
   -0.3800    0.4400    0.0000 C   0  0  2  0  0  0  0  0  0  0  0  0
    0.9200   -0.3100    0.0000 C   0  0  2  0  0  0  0  0  0  0  0  0
    2.2200    0.4400    0.0000 C   0  0  2  0  0  0  0  0  0  0  0  0
    3.6500   -0.0200    0.0000 C   0  0  0  0  0  0  0  0  0  0  0  0
    4.5300    1.1900    0.0000 C   0  0  0  0  0  0  0  0  0  0  0  0
    3.6500    2.4000    0.0000 C   0  0  2  0  0  0  0  0  0  0  0  0
    4.1153    3.8260    0.0000 O   0  0  0  0  0  0  0  0  0  0  0  0
    2.2200    1.9400    0.0000 C   0  0  2  0  0  0  0  0  0  0  0  0
    2.3787    3.4316    0.0000 C   0  0  0  0  0  0  0  0  0  0  0  0
    0.9200    2.6900    0.0000 C   0  0  0  0  0  0  0  0  0  0  0  0
   -0.3800    1.9400    0.0000 C   0  0  2  0  0  0  0  0  0  0  0  0
   -1.6789    2.6902    0.0000 C   0  0  0  0  0  0  0  0  0  0  0  0
   -2.9800   -4.0600    0.0000 O   0  0  0  0  0  0  0  0  0  0  0  0
  2  1  1  6  0  0  0
  2  3  1  0  0  0  0
  3  4  1  0  0  0  0
  4  5  2  0  0  0  0
  5  6  1  0  0  0  0
  6  7  2  0  0  0  0
  6  8  1  0  0  0  0
  8  9  1  0  0  0  0
 10  9  1  6  0  0  0
  4 10  1  0  0  0  0
 11 10  1  1  0  0  0
 11 12  1  0  0  0  0
 12  2  1  6  0  0  0
 12 13  1  0  0  0  0
 13 14  1  1  0  0  0
 14 15  1  0  0  0  0
 15 16  1  0  0  0  0
 16 17  1  1  0  0  0
 16 18  1  0  0  0  0
 13 18  1  0  0  0  0
 18 19  1  1  0  0  0
 18 20  1  0  0  0  0
 21 20  1  0  0  0  0
 11 21  1  0  0  0  0
 21 22  1  1  0  0  0
 23  5  1  0  0  0  0
M  END
> <InChI>
InChI=1S/C20H30O3/c1-10-8-13-12(4-6-15(21)19(13)23)17-11(2)9-20(3)14(18(10)17)5-7-16(20)22/h10-12,14,16-18,22-23H,4-9H2,1-3H3/t10-,11+,12+,14+,16+,17-,18+,20+/m1/s1

> <InChIKey>
BIVCEJVXLHYHCH-HFSMXESLSA-N

> <SMILES>
C[C@@H]1CC2=C(C(=O)CC[C@@H]2[C@@H]3[C@@H]1[C@@H]4CC[C@H](O)[C@@]4(C)C[C@@H]3C)O

> <Synonyms>


> <PUBCHEM_CID>


> <Molecular_formula>
C20H30O3

> <Major_Isotope_Mass>
318.21949481999997

> <ALogP>
3.067599999999999

> <Lipinski_Violations>
0

> <Insecticide_Likeness_Violations>
0

> <Post_Em_Herbicide_Likeness_Violations>
0

> <Metabolite_ID>
BTM00006

> <Reaction>
4-Hydroxylation of sterol

> <Reaction_ID>
BTMR0400

> <Enzyme(s)>
CYP1A2
CYP3A4

> <Biosystem>
HUMAN

> <Precursor_ID>


> <Precursor_SMILES>
C[C@@H]1CC2=CC(=O)CC[C@@H]2[C@@H]3[C@@H]1[C@@H]4CC[C@H](O)[C@@]4(C)C[C@@H]3C

> <Precursor_InChI>
InChI=1S/C20H30O2/c1-11-8-13-9-14(21)4-5-15(13)18-12(2)10-20(3)16(19(11)18)6-7-17(20)22/h9,11-12,15-19,22H,4-8,10H2,1-3H3/t11-,12+,15+,16+,17+,18-,19+,20+/m1/s1

> <Precursor_InChIKey>
KVIKZOGGZHCGFH-RJMNTABLSA-N

> <Precursor_ALogP>


> <Precursor_Major_Isotope_Mass>
302.2245

$$$$
BTM00007
  CDK     09122622082D

 23 26  0  0  1  0  0  0  0  0999 V2000
    2.2189   -2.5602    0.0000 C   0  0  0  0  0  0  0  0  0  0  0  0
    0.9200   -1.8100    0.0000 C   0  0  2  0  0  0  0  0  0  0  0  0
   -0.3800   -2.5600    0.0000 C   0  0  0  0  0  0  0  0  0  0  0  0
   -1.6800   -1.8100    0.0000 C   0  0  0  0  0  0  0  0  0  0  0  0
   -2.9800   -2.5600    0.0000 C   0  0  0  0  0  0  0  0  0  0  0  0
   -4.2800   -1.8100    0.0000 C   0  0  0  0  0  0  0  0  0  0  0  0
   -5.5789   -2.5602    0.0000 O   0  0  0  0  0  0  0  0  0  0  0  0
   -4.2800   -0.3100    0.0000 C   0  0  0  0  0  0  0  0  0  0  0  0
   -2.9800    0.4400    0.0000 C   0  0  0  0  0  0  0  0  0  0  0  0
   -1.6800   -0.3100    0.0000 C   0  0  2  0  0  0  0  0  0  0  0  0
   -0.3800    0.4400    0.0000 C   0  0  2  0  0  0  0  0  0  0  0  0
    0.9200   -0.3100    0.0000 C   0  0  2  0  0  0  0  0  0  0  0  0
    2.2200    0.4400    0.0000 C   0  0  2  0  0  0  0  0  0  0  0  0
    3.6500   -0.0200    0.0000 C   0  0  0  0  0  0  0  0  0  0  0  0
    4.5300    1.1900    0.0000 C   0  0  0  0  0  0  0  0  0  0  0  0
    3.6500    2.4000    0.0000 C   0  0  2  0  0  0  0  0  0  0  0  0
    4.1153    3.8260    0.0000 O   0  0  0  0  0  0  0  0  0  0  0  0
    2.2200    1.9400    0.0000 C   0  0  2  0  0  0  0  0  0  0  0  0
    2.3787    3.4316    0.0000 C   0  0  0  0  0  0  0  0  0  0  0  0
    0.9200    2.6900    0.0000 C   0  0  0  0  0  0  0  0  0  0  0  0
   -0.3800    1.9400    0.0000 C   0  0  2  0  0  0  0  0  0  0  0  0
   -1.6789    2.6902    0.0000 C   0  0  0  0  0  0  0  0  0  0  0  0
   -0.3800   -4.0600    0.0000 O   0  0  0  0  0  0  0  0  0  0  0  0
  2  1  1  6  0  0  0
  2  3  1  0  0  0  0
  3  4  1  0  0  0  0
  4  5  2  0  0  0  0
  5  6  1  0  0  0  0
  6  7  2  0  0  0  0
  6  8  1  0  0  0  0
  8  9  1  0  0  0  0
 10  9  1  6  0  0  0
  4 10  1  0  0  0  0
 11 10  1  1  0  0  0
 11 12  1  0  0  0  0
 12  2  1  6  0  0  0
 12 13  1  0  0  0  0
 13 14  1  1  0  0  0
 14 15  1  0  0  0  0
 15 16  1  0  0  0  0
 16 17  1  1  0  0  0
 16 18  1  0  0  0  0
 13 18  1  0  0  0  0
 18 19  1  1  0  0  0
 18 20  1  0  0  0  0
 21 20  1  0  0  0  0
 11 21  1  0  0  0  0
 21 22  1  1  0  0  0
 23  3  1  0  0  0  0
M  END
> <InChI>
InChI=1S/C20H30O3/c1-10-9-20(3)15(6-7-16(20)22)18-11(2)19(23)14-8-12(21)4-5-13(14)17(10)18/h8,10-11,13,15-19,22-23H,4-7,9H2,1-3H3/t10-,11-,13-,15-,16-,17+,18-,19?,20-/m0/s1

> <InChIKey>
AYWLUGROOMPGHN-VSFUICFESA-N

> <SMILES>
C[C@@H]1C(C2=CC(=O)CC[C@@H]2[C@@H]3[C@@H]1[C@@H]4CC[C@H](O)[C@@]4(C)C[C@@H]3C)O

> <Synonyms>


> <PUBCHEM_CID>


> <Molecular_formula>
C20H30O3

> <Major_Isotope_Mass>
318.21949482

> <ALogP>
2.596299999999997

> <Lipinski_Violations>
0

> <Insecticide_Likeness_Violations>
0

> <Post_Em_Herbicide_Likeness_Violations>
0

> <Metabolite_ID>
BTM00007

> <Reaction>
6-Hydroxylation of sterol

> <Reaction_ID>
BTMR0402

> <Enzyme(s)>
CYP2A6
CYP2B6
CYP2C8
CYP2C9
CYP2C19
CYP2D6
CYP3A4

> <Biosystem>
HUMAN

> <Precursor_ID>


> <Precursor_SMILES>
C[C@@H]1CC2=CC(=O)CC[C@@H]2[C@@H]3[C@@H]1[C@@H]4CC[C@H](O)[C@@]4(C)C[C@@H]3C

> <Precursor_InChI>
InChI=1S/C20H30O2/c1-11-8-13-9-14(21)4-5-15(13)18-12(2)10-20(3)16(19(11)18)6-7-17(20)22/h9,11-12,15-19,22H,4-8,10H2,1-3H3/t11-,12+,15+,16+,17+,18-,19+,20+/m1/s1

> <Precursor_InChIKey>
KVIKZOGGZHCGFH-RJMNTABLSA-N

> <Precursor_ALogP>


> <Precursor_Major_Isotope_Mass>
302.2245

$$$$
BTM00008
  CDK     09122622082D

 23 26  0  0  1  0  0  0  0  0999 V2000
    1.4327   -3.2196    0.0000 C   0  0  0  0  0  0  0  0  0  0  0  0
    0.9200   -1.8100    0.0000 C   0  0  0  0  0  0  0  0  0  0  0  0
   -0.3800   -2.5600    0.0000 C   0  0  0  0  0  0  0  0  0  0  0  0
   -1.6800   -1.8100    0.0000 C   0  0  0  0  0  0  0  0  0  0  0  0
   -2.9800   -2.5600    0.0000 C   0  0  0  0  0  0  0  0  0  0  0  0
   -4.2800   -1.8100    0.0000 C   0  0  0  0  0  0  0  0  0  0  0  0
   -5.5789   -2.5602    0.0000 O   0  0  0  0  0  0  0  0  0  0  0  0
   -4.2800   -0.3100    0.0000 C   0  0  0  0  0  0  0  0  0  0  0  0
   -2.9800    0.4400    0.0000 C   0  0  0  0  0  0  0  0  0  0  0  0
   -1.6800   -0.3100    0.0000 C   0  0  2  0  0  0  0  0  0  0  0  0
   -0.3800    0.4400    0.0000 C   0  0  2  0  0  0  0  0  0  0  0  0
    0.9200   -0.3100    0.0000 C   0  0  2  0  0  0  0  0  0  0  0  0
    2.2200    0.4400    0.0000 C   0  0  2  0  0  0  0  0  0  0  0  0
    3.6500   -0.0200    0.0000 C   0  0  0  0  0  0  0  0  0  0  0  0
    4.5300    1.1900    0.0000 C   0  0  0  0  0  0  0  0  0  0  0  0
    3.6500    2.4000    0.0000 C   0  0  2  0  0  0  0  0  0  0  0  0
    4.1153    3.8260    0.0000 O   0  0  0  0  0  0  0  0  0  0  0  0
    2.2200    1.9400    0.0000 C   0  0  2  0  0  0  0  0  0  0  0  0
    2.3787    3.4316    0.0000 C   0  0  0  0  0  0  0  0  0  0  0  0
    0.9200    2.6900    0.0000 C   0  0  0  0  0  0  0  0  0  0  0  0
   -0.3800    1.9400    0.0000 C   0  0  2  0  0  0  0  0  0  0  0  0
   -1.6789    2.6902    0.0000 C   0  0  0  0  0  0  0  0  0  0  0  0
    2.3972   -1.5497    0.0000 O   0  0  0  0  0  0  0  0  0  0  0  0
  2  1  1  0  0  0  0
  2  3  1  0  0  0  0
  3  4  1  0  0  0  0
  4  5  2  0  0  0  0
  5  6  1  0  0  0  0
  6  7  2  0  0  0  0
  6  8  1  0  0  0  0
  8  9  1  0  0  0  0
 10  9  1  6  0  0  0
  4 10  1  0  0  0  0
 11 10  1  1  0  0  0
 11 12  1  0  0  0  0
 12  2  1  6  0  0  0
 12 13  1  0  0  0  0
 13 14  1  1  0  0  0
 14 15  1  0  0  0  0
 15 16  1  0  0  0  0
 16 17  1  1  0  0  0
 16 18  1  0  0  0  0
 13 18  1  0  0  0  0
 18 19  1  1  0  0  0
 18 20  1  0  0  0  0
 21 20  1  0  0  0  0
 11 21  1  0  0  0  0
 21 22  1  1  0  0  0
  2 23  1  0  0  0  0
M  END
> <InChI>
InChI=1S/C20H30O3/c1-11-9-19(2)15(6-7-16(19)22)18-17(11)14-5-4-13(21)8-12(14)10-20(18,3)23/h8,11,14-18,22-23H,4-7,9-10H2,1-3H3/t11-,14-,15-,16-,17+,18-,19-,20?/m0/s1

> <InChIKey>
VDARNATXLYMYRZ-QIPZRGNZSA-N

> <SMILES>
CC1(CC2=CC(=O)CC[C@@H]2[C@@H]3[C@@H]1[C@@H]4CC[C@H](O)[C@@]4(C)C[C@@H]3C)O

> <Synonyms>


> <PUBCHEM_CID>


> <Molecular_formula>
C20H30O3

> <Major_Isotope_Mass>
318.21949481999997

> <ALogP>
2.4144999999999985

> <Lipinski_Violations>
0

> <Insecticide_Likeness_Violations>
0

> <Post_Em_Herbicide_Likeness_Violations>
0

> <Metabolite_ID>
BTM00008

> <Reaction>
Hydroxylation of penultimate aliphatic tertiary carbon

> <Reaction_ID>
BTMR1075

> <Enzyme(s)>
CYP2A6
CYP2B6
CYP2C8
CYP2C9
CYP2D6
CYP3A4

> <Biosystem>
HUMAN

> <Precursor_ID>


> <Precursor_SMILES>
C[C@@H]1CC2=CC(=O)CC[C@@H]2[C@@H]3[C@@H]1[C@@H]4CC[C@H](O)[C@@]4(C)C[C@@H]3C

> <Precursor_InChI>
InChI=1S/C20H30O2/c1-11-8-13-9-14(21)4-5-15(13)18-12(2)10-20(3)16(19(11)18)6-7-17(20)22/h9,11-12,15-19,22H,4-8,10H2,1-3H3/t11-,12+,15+,16+,17+,18-,19+,20+/m1/s1

> <Precursor_InChIKey>
KVIKZOGGZHCGFH-RJMNTABLSA-N

> <Precursor_ALogP>


> <Precursor_Major_Isotope_Mass>
302.2245

$$$$
BTM00009
  CDK     09122622082D

 23 26  0  0  1  0  0  0  0  0999 V2000
    2.2189   -2.5602    0.0000 C   0  0  0  0  0  0  0  0  0  0  0  0
    0.9200   -1.8100    0.0000 C   0  0  2  0  0  0  0  0  0  0  0  0
   -0.3800   -2.5600    0.0000 C   0  0  0  0  0  0  0  0  0  0  0  0
   -1.6800   -1.8100    0.0000 C   0  0  0  0  0  0  0  0  0  0  0  0
   -2.9800   -2.5600    0.0000 C   0  0  0  0  0  0  0  0  0  0  0  0
   -4.2800   -1.8100    0.0000 C   0  0  0  0  0  0  0  0  0  0  0  0
   -5.5789   -2.5602    0.0000 O   0  0  0  0  0  0  0  0  0  0  0  0
   -4.2800   -0.3100    0.0000 C   0  0  0  0  0  0  0  0  0  0  0  0
   -2.9800    0.4400    0.0000 C   0  0  0  0  0  0  0  0  0  0  0  0
   -1.6800   -0.3100    0.0000 C   0  0  2  0  0  0  0  0  0  0  0  0
   -0.3800    0.4400    0.0000 C   0  0  2  0  0  0  0  0  0  0  0  0
    0.9200   -0.3100    0.0000 C   0  0  2  0  0  0  0  0  0  0  0  0
    2.2200    0.4400    0.0000 C   0  0  2  0  0  0  0  0  0  0  0  0
    3.6500   -0.0200    0.0000 C   0  0  0  0  0  0  0  0  0  0  0  0
    4.5300    1.1900    0.0000 C   0  0  0  0  0  0  0  0  0  0  0  0
    3.6500    2.4000    0.0000 C   0  0  2  0  0  0  0  0  0  0  0  0
    4.1153    3.8260    0.0000 O   0  0  0  0  0  0  0  0  0  0  0  0
    2.2200    1.9400    0.0000 C   0  0  2  0  0  0  0  0  0  0  0  0
    2.3787    3.4316    0.0000 C   0  0  0  0  0  0  0  0  0  0  0  0
    0.9200    2.6900    0.0000 C   0  0  0  0  0  0  0  0  0  0  0  0
   -0.3800    1.9400    0.0000 C   0  0  0  0  0  0  0  0  0  0  0  0
   -0.8927    3.3496    0.0000 C   0  0  0  0  0  0  0  0  0  0  0  0
   -1.8572    1.6797    0.0000 O   0  0  0  0  0  0  0  0  0  0  0  0
  2  1  1  6  0  0  0
  2  3  1  0  0  0  0
  3  4  1  0  0  0  0
  4  5  2  0  0  0  0
  5  6  1  0  0  0  0
  6  7  2  0  0  0  0
  6  8  1  0  0  0  0
  8  9  1  0  0  0  0
 10  9  1  6  0  0  0
  4 10  1  0  0  0  0
 10 11  1  0  0  0  0
 11 12  1  0  0  0  0
 12  2  1  6  0  0  0
 12 13  1  0  0  0  0
 13 14  1  1  0  0  0
 14 15  1  0  0  0  0
 15 16  1  0  0  0  0
 16 17  1  1  0  0  0
 16 18  1  0  0  0  0
 13 18  1  0  0  0  0
 18 19  1  1  0  0  0
 18 20  1  0  0  0  0
 21 20  1  0  0  0  0
 11 21  1  1  0  0  0
 21 22  1  0  0  0  0
 21 23  1  0  0  0  0
M  END
> <InChI>
InChI=1S/C20H30O3/c1-11-8-12-9-13(21)4-5-14(12)18-17(11)15-6-7-16(22)19(15,2)10-20(18,3)23/h9,11,14-18,22-23H,4-8,10H2,1-3H3/t11-,14+,15+,16+,17+,18-,19+,20?/m1/s1

> <InChIKey>
IZTORNQGEOMFQJ-OHRCESDCSA-N

> <SMILES>
C[C@@H]1CC2=CC(=O)CC[C@@H]2[C@@H]3[C@@H]1[C@@H]4CC[C@H](O)[C@@]4(C)CC3(C)O

> <Synonyms>


> <PUBCHEM_CID>


> <Molecular_formula>
C20H30O3

> <Major_Isotope_Mass>
318.21949482

> <ALogP>
2.4144999999999985

> <Lipinski_Violations>
0

> <Insecticide_Likeness_Violations>
0

> <Post_Em_Herbicide_Likeness_Violations>
0

> <Metabolite_ID>
BTM00009

> <Reaction>
Hydroxylation of penultimate aliphatic tertiary carbon

> <Reaction_ID>
BTMR1075

> <Enzyme(s)>
CYP2A6
CYP2B6
CYP2C8
CYP2C9
CYP2D6
CYP3A4

> <Biosystem>
HUMAN

> <Precursor_ID>


> <Precursor_SMILES>
C[C@@H]1CC2=CC(=O)CC[C@@H]2[C@@H]3[C@@H]1[C@@H]4CC[C@H](O)[C@@]4(C)C[C@@H]3C

> <Precursor_InChI>
InChI=1S/C20H30O2/c1-11-8-13-9-14(21)4-5-15(13)18-12(2)10-20(3)16(19(11)18)6-7-17(20)22/h9,11-12,15-19,22H,4-8,10H2,1-3H3/t11-,12+,15+,16+,17+,18-,19+,20+/m1/s1

> <Precursor_InChIKey>
KVIKZOGGZHCGFH-RJMNTABLSA-N

> <Precursor_ALogP>


> <Precursor_Major_Isotope_Mass>
302.2245

$$$$
BTM00010
  CDK     09122622082D

 23 26  0  0  1  0  0  0  0  0999 V2000
    2.2189   -2.5602    0.0000 C   0  0  0  0  0  0  0  0  0  0  0  0
    0.9200   -1.8100    0.0000 C   0  0  2  0  0  0  0  0  0  0  0  0
   -0.3800   -2.5600    0.0000 C   0  0  0  0  0  0  0  0  0  0  0  0
   -1.6800   -1.8100    0.0000 C   0  0  0  0  0  0  0  0  0  0  0  0
   -2.9800   -2.5600    0.0000 C   0  0  0  0  0  0  0  0  0  0  0  0
   -4.2800   -1.8100    0.0000 C   0  0  0  0  0  0  0  0  0  0  0  0
   -5.5789   -2.5602    0.0000 O   0  0  0  0  0  0  0  0  0  0  0  0
   -4.2800   -0.3100    0.0000 C   0  0  0  0  0  0  0  0  0  0  0  0
   -2.9800    0.4400    0.0000 C   0  0  0  0  0  0  0  0  0  0  0  0
   -1.6800   -0.3100    0.0000 C   0  0  2  0  0  0  0  0  0  0  0  0
   -0.3800    0.4400    0.0000 C   0  0  2  0  0  0  0  0  0  0  0  0
    0.9200   -0.3100    0.0000 C   0  0  2  0  0  0  0  0  0  0  0  0
    2.2200    0.4400    0.0000 C   0  0  2  0  0  0  0  0  0  0  0  0
    3.6500   -0.0200    0.0000 C   0  0  0  0  0  0  0  0  0  0  0  0
    4.5300    1.1900    0.0000 C   0  0  0  0  0  0  0  0  0  0  0  0
    3.6500    2.4000    0.0000 C   0  0  2  0  0  0  0  0  0  0  0  0
    4.1153    3.8260    0.0000 O   0  0  0  0  0  0  0  0  0  0  0  0
    2.2200    1.9400    0.0000 C   0  0  2  0  0  0  0  0  0  0  0  0
    2.3787    3.4316    0.0000 C   0  0  0  0  0  0  0  0  0  0  0  0
    0.9200    2.6900    0.0000 C   0  0  0  0  0  0  0  0  0  0  0  0
   -0.3800    1.9400    0.0000 C   0  0  2  0  0  0  0  0  0  0  0  0
   -1.6789    2.6902    0.0000 C   0  0  0  0  0  0  0  0  0  0  0  0
    2.2187   -4.0602    0.0000 O   0  0  0  0  0  0  0  0  0  0  0  0
  2  1  1  6  0  0  0
  2  3  1  0  0  0  0
  3  4  1  0  0  0  0
  4  5  2  0  0  0  0
  5  6  1  0  0  0  0
  6  7  2  0  0  0  0
  6  8  1  0  0  0  0
  8  9  1  0  0  0  0
 10  9  1  6  0  0  0
  4 10  1  0  0  0  0
 11 10  1  1  0  0  0
 11 12  1  0  0  0  0
 12  2  1  6  0  0  0
 12 13  1  0  0  0  0
 13 14  1  1  0  0  0
 14 15  1  0  0  0  0
 15 16  1  0  0  0  0
 16 17  1  1  0  0  0
 16 18  1  0  0  0  0
 13 18  1  0  0  0  0
 18 19  1  1  0  0  0
 18 20  1  0  0  0  0
 21 20  1  0  0  0  0
 11 21  1  0  0  0  0
 21 22  1  1  0  0  0
 23  1  1  0  0  0  0
M  END
> <InChI>
InChI=1S/C20H30O3/c1-11-9-20(2)16(5-6-17(20)23)19-13(10-21)7-12-8-14(22)3-4-15(12)18(11)19/h8,11,13,15-19,21,23H,3-7,9-10H2,1-2H3/t11-,13-,15-,16-,17-,18+,19-,20-/m0/s1

> <InChIKey>
FEAUCZYPTZZMPD-VMWIJHJCSA-N

> <SMILES>
C([C@@H]1CC2=CC(=O)CC[C@@H]2[C@@H]3[C@@H]1[C@@H]4CC[C@H](O)[C@@]4(C)C[C@@H]3C)O

> <Synonyms>


> <PUBCHEM_CID>


> <Molecular_formula>
C20H30O3

> <Major_Isotope_Mass>
318.21949481999997

> <ALogP>
2.4724999999999975

> <Lipinski_Violations>
0

> <Insecticide_Likeness_Violations>
0

> <Post_Em_Herbicide_Likeness_Violations>
0

> <Metabolite_ID>
BTM00010

> <Reaction>
Hydroxylation of methyl carbon adjacent to aliphatic ring

> <Reaction_ID>
BTMR0054

> <Enzyme(s)>
CYP2B6
CYP2C8
CYP2C9
CYP2C19
CYP2D6
CYP3A4

> <Biosystem>
HUMAN

> <Precursor_ID>


> <Precursor_SMILES>
C[C@@H]1CC2=CC(=O)CC[C@@H]2[C@@H]3[C@@H]1[C@@H]4CC[C@H](O)[C@@]4(C)C[C@@H]3C

> <Precursor_InChI>
InChI=1S/C20H30O2/c1-11-8-13-9-14(21)4-5-15(13)18-12(2)10-20(3)16(19(11)18)6-7-17(20)22/h9,11-12,15-19,22H,4-8,10H2,1-3H3/t11-,12+,15+,16+,17+,18-,19+,20+/m1/s1

> <Precursor_InChIKey>
KVIKZOGGZHCGFH-RJMNTABLSA-N

> <Precursor_ALogP>


> <Precursor_Major_Isotope_Mass>
302.2245

$$$$
BTM00011
  CDK     09122622082D

 23 26  0  0  1  0  0  0  0  0999 V2000
    2.2189   -2.5602    0.0000 C   0  0  0  0  0  0  0  0  0  0  0  0
    0.9200   -1.8100    0.0000 C   0  0  2  0  0  0  0  0  0  0  0  0
   -0.3800   -2.5600    0.0000 C   0  0  0  0  0  0  0  0  0  0  0  0
   -1.6800   -1.8100    0.0000 C   0  0  0  0  0  0  0  0  0  0  0  0
   -2.9800   -2.5600    0.0000 C   0  0  0  0  0  0  0  0  0  0  0  0
   -4.2800   -1.8100    0.0000 C   0  0  0  0  0  0  0  0  0  0  0  0
   -5.5789   -2.5602    0.0000 O   0  0  0  0  0  0  0  0  0  0  0  0
   -4.2800   -0.3100    0.0000 C   0  0  0  0  0  0  0  0  0  0  0  0
   -2.9800    0.4400    0.0000 C   0  0  0  0  0  0  0  0  0  0  0  0
   -1.6800   -0.3100    0.0000 C   0  0  2  0  0  0  0  0  0  0  0  0
   -0.3800    0.4400    0.0000 C   0  0  2  0  0  0  0  0  0  0  0  0
    0.9200   -0.3100    0.0000 C   0  0  2  0  0  0  0  0  0  0  0  0
    2.2200    0.4400    0.0000 C   0  0  2  0  0  0  0  0  0  0  0  0
    3.6500   -0.0200    0.0000 C   0  0  0  0  0  0  0  0  0  0  0  0
    4.5300    1.1900    0.0000 C   0  0  0  0  0  0  0  0  0  0  0  0
    3.6500    2.4000    0.0000 C   0  0  2  0  0  0  0  0  0  0  0  0
    4.1153    3.8260    0.0000 O   0  0  0  0  0  0  0  0  0  0  0  0
    2.2200    1.9400    0.0000 C   0  0  2  0  0  0  0  0  0  0  0  0
    2.3787    3.4316    0.0000 C   0  0  0  0  0  0  0  0  0  0  0  0
    0.9200    2.6900    0.0000 C   0  0  0  0  0  0  0  0  0  0  0  0
   -0.3800    1.9400    0.0000 C   0  0  2  0  0  0  0  0  0  0  0  0
   -1.6789    2.6902    0.0000 C   0  0  0  0  0  0  0  0  0  0  0  0
   -1.6787    4.1902    0.0000 O   0  0  0  0  0  0  0  0  0  0  0  0
  2  1  1  6  0  0  0
  2  3  1  0  0  0  0
  3  4  1  0  0  0  0
  4  5  2  0  0  0  0
  5  6  1  0  0  0  0
  6  7  2  0  0  0  0
  6  8  1  0  0  0  0
  8  9  1  0  0  0  0
 10  9  1  6  0  0  0
  4 10  1  0  0  0  0
 11 10  1  1  0  0  0
 11 12  1  0  0  0  0
 12  2  1  6  0  0  0
 12 13  1  0  0  0  0
 13 14  1  1  0  0  0
 14 15  1  0  0  0  0
 15 16  1  0  0  0  0
 16 17  1  1  0  0  0
 16 18  1  0  0  0  0
 13 18  1  0  0  0  0
 18 19  1  1  0  0  0
 18 20  1  0  0  0  0
 21 20  1  0  0  0  0
 11 21  1  0  0  0  0
 21 22  1  1  0  0  0
 23 22  1  0  0  0  0
M  END
> <InChI>
InChI=1S/C20H30O3/c1-11-7-12-8-14(22)3-4-15(12)19-13(10-21)9-20(2)16(18(11)19)5-6-17(20)23/h8,11,13,15-19,21,23H,3-7,9-10H2,1-2H3/t11-,13-,15+,16+,17+,18+,19-,20+/m1/s1

> <InChIKey>
LUESJGZPEJADAX-ZFSMHBOVSA-N

> <SMILES>
C[C@@H]1CC2=CC(=O)CC[C@@H]2[C@@H]3[C@@H]1[C@@H]4CC[C@H](O)[C@@]4(C)C[C@@H]3CO

> <Synonyms>


> <PUBCHEM_CID>


> <Molecular_formula>
C20H30O3

> <Major_Isotope_Mass>
318.21949481999997

> <ALogP>
2.4724999999999975

> <Lipinski_Violations>
0

> <Insecticide_Likeness_Violations>
0

> <Post_Em_Herbicide_Likeness_Violations>
0

> <Metabolite_ID>
BTM00011

> <Reaction>
Hydroxylation of methyl carbon adjacent to aliphatic ring

> <Reaction_ID>
BTMR0054

> <Enzyme(s)>
CYP2B6
CYP2C8
CYP2C9
CYP2C19
CYP2D6
CYP3A4

> <Biosystem>
HUMAN

> <Precursor_ID>


> <Precursor_SMILES>
C[C@@H]1CC2=CC(=O)CC[C@@H]2[C@@H]3[C@@H]1[C@@H]4CC[C@H](O)[C@@]4(C)C[C@@H]3C

> <Precursor_InChI>
InChI=1S/C20H30O2/c1-11-8-13-9-14(21)4-5-15(13)18-12(2)10-20(3)16(19(11)18)6-7-17(20)22/h9,11-12,15-19,22H,4-8,10H2,1-3H3/t11-,12+,15+,16+,17+,18-,19+,20+/m1/s1

> <Precursor_InChIKey>
KVIKZOGGZHCGFH-RJMNTABLSA-N

> <Precursor_ALogP>


> <Precursor_Major_Isotope_Mass>
302.2245

$$$$
BTM00012
  CDK     09122622082D

 23 26  0  0  1  0  0  0  0  0999 V2000
    2.2189   -2.5602    0.0000 C   0  0  0  0  0  0  0  0  0  0  0  0
    0.9200   -1.8100    0.0000 C   0  0  2  0  0  0  0  0  0  0  0  0
   -0.3800   -2.5600    0.0000 C   0  0  0  0  0  0  0  0  0  0  0  0
   -1.6800   -1.8100    0.0000 C   0  0  0  0  0  0  0  0  0  0  0  0
   -2.9800   -2.5600    0.0000 C   0  0  0  0  0  0  0  0  0  0  0  0
   -4.2800   -1.8100    0.0000 C   0  0  0  0  0  0  0  0  0  0  0  0
   -5.5789   -2.5602    0.0000 O   0  0  0  0  0  0  0  0  0  0  0  0
   -4.2800   -0.3100    0.0000 C   0  0  0  0  0  0  0  0  0  0  0  0
   -2.9800    0.4400    0.0000 C   0  0  0  0  0  0  0  0  0  0  0  0
   -1.6800   -0.3100    0.0000 C   0  0  2  0  0  0  0  0  0  0  0  0
   -0.3800    0.4400    0.0000 C   0  0  2  0  0  0  0  0  0  0  0  0
    0.9200   -0.3100    0.0000 C   0  0  2  0  0  0  0  0  0  0  0  0
    2.2200    0.4400    0.0000 C   0  0  2  0  0  0  0  0  0  0  0  0
    3.6500   -0.0200    0.0000 C   0  0  0  0  0  0  0  0  0  0  0  0
    4.5300    1.1900    0.0000 C   0  0  0  0  0  0  0  0  0  0  0  0
    3.6500    2.4000    0.0000 C   0  0  2  0  0  0  0  0  0  0  0  0
    4.1153    3.8260    0.0000 O   0  0  0  0  0  0  0  0  0  0  0  0
    2.2200    1.9400    0.0000 C   0  0  2  0  0  0  0  0  0  0  0  0
    2.3787    3.4316    0.0000 C   0  0  0  0  0  0  0  0  0  0  0  0
    0.9200    2.6900    0.0000 C   0  0  0  0  0  0  0  0  0  0  0  0
   -0.3800    1.9400    0.0000 C   0  0  2  0  0  0  0  0  0  0  0  0
   -1.6789    2.6902    0.0000 C   0  0  0  0  0  0  0  0  0  0  0  0
    1.1664    4.3148    0.0000 O   0  0  0  0  0  0  0  0  0  0  0  0
  2  1  1  6  0  0  0
  2  3  1  0  0  0  0
  3  4  1  0  0  0  0
  4  5  2  0  0  0  0
  5  6  1  0  0  0  0
  6  7  2  0  0  0  0
  6  8  1  0  0  0  0
  8  9  1  0  0  0  0
 10  9  1  6  0  0  0
  4 10  1  0  0  0  0
 11 10  1  1  0  0  0
 11 12  1  0  0  0  0
 12  2  1  6  0  0  0
 12 13  1  0  0  0  0
 13 14  1  1  0  0  0
 14 15  1  0  0  0  0
 15 16  1  0  0  0  0
 16 17  1  1  0  0  0
 16 18  1  0  0  0  0
 13 18  1  0  0  0  0
 18 19  1  1  0  0  0
 18 20  1  0  0  0  0
 21 20  1  0  0  0  0
 11 21  1  0  0  0  0
 21 22  1  1  0  0  0
 23 19  1  0  0  0  0
M  END
> <InChI>
InChI=1S/C20H30O3/c1-11-7-13-8-14(22)3-4-15(13)18-12(2)9-20(10-21)16(19(11)18)5-6-17(20)23/h8,11-12,15-19,21,23H,3-7,9-10H2,1-2H3/t11-,12+,15+,16+,17+,18-,19+,20-/m1/s1

> <InChIKey>
AXKSLJSJRMADDE-FOPGVMKVSA-N

> <SMILES>
C[C@@H]1CC2=CC(=O)CC[C@@H]2[C@@H]3[C@@H]1[C@@H]4CC[C@H](O)[C@@]4(CO)C[C@@H]3C

> <Synonyms>


> <PUBCHEM_CID>


> <Molecular_formula>
C20H30O3

> <Major_Isotope_Mass>
318.21949482

> <ALogP>
2.5399999999999974

> <Lipinski_Violations>
0

> <Insecticide_Likeness_Violations>
0

> <Post_Em_Herbicide_Likeness_Violations>
0

> <Metabolite_ID>
BTM00012

> <Reaction>
Hydroxylation of methyl carbon adjacent to aliphatic ring

> <Reaction_ID>
BTMR0054

> <Enzyme(s)>
CYP2B6
CYP2C8
CYP2C9
CYP2C19
CYP2D6
CYP3A4

> <Biosystem>
HUMAN

> <Precursor_ID>


> <Precursor_SMILES>
C[C@@H]1CC2=CC(=O)CC[C@@H]2[C@@H]3[C@@H]1[C@@H]4CC[C@H](O)[C@@]4(C)C[C@@H]3C

> <Precursor_InChI>
InChI=1S/C20H30O2/c1-11-8-13-9-14(21)4-5-15(13)18-12(2)10-20(3)16(19(11)18)6-7-17(20)22/h9,11-12,15-19,22H,4-8,10H2,1-3H3/t11-,12+,15+,16+,17+,18-,19+,20+/m1/s1

> <Precursor_InChIKey>
KVIKZOGGZHCGFH-RJMNTABLSA-N

> <Precursor_ALogP>


> <Precursor_Major_Isotope_Mass>
302.2245

$$$$
BTM00013
  CDK     09122622082D

 22 25  0  0  1  0  0  0  0  0999 V2000
    2.2189   -2.5602    0.0000 C   0  0  0  0  0  0  0  0  0  0  0  0
    0.9200   -1.8100    0.0000 C   0  0  2  0  0  0  0  0  0  0  0  0
   -0.3800   -2.5600    0.0000 C   0  0  0  0  0  0  0  0  0  0  0  0
   -1.6800   -1.8100    0.0000 C   0  0  0  0  0  0  0  0  0  0  0  0
   -2.9800   -2.5600    0.0000 C   0  0  0  0  0  0  0  0  0  0  0  0
   -4.2800   -1.8100    0.0000 C   0  0  0  0  0  0  0  0  0  0  0  0
   -5.5789   -2.5602    0.0000 O   0  0  0  0  0  0  0  0  0  0  0  0
   -4.2800   -0.3100    0.0000 C   0  0  0  0  0  0  0  0  0  0  0  0
   -2.9800    0.4400    0.0000 C   0  0  0  0  0  0  0  0  0  0  0  0
   -1.6800   -0.3100    0.0000 C   0  0  2  0  0  0  0  0  0  0  0  0
   -0.3800    0.4400    0.0000 C   0  0  2  0  0  0  0  0  0  0  0  0
    0.9200   -0.3100    0.0000 C   0  0  2  0  0  0  0  0  0  0  0  0
    2.2200    0.4400    0.0000 C   0  0  2  0  0  0  0  0  0  0  0  0
    3.6500   -0.0200    0.0000 C   0  0  0  0  0  0  0  0  0  0  0  0
    4.5300    1.1900    0.0000 C   0  0  0  0  0  0  0  0  0  0  0  0
    3.6500    2.4000    0.0000 C   0  0  2  0  0  0  0  0  0  0  0  0
    4.1153    3.8260    0.0000 O   0  0  0  0  0  0  0  0  0  0  0  0
    2.2200    1.9400    0.0000 C   0  0  2  0  0  0  0  0  0  0  0  0
    2.3787    3.4316    0.0000 C   0  0  0  0  0  0  0  0  0  0  0  0
    0.9200    2.6900    0.0000 C   0  0  0  0  0  0  0  0  0  0  0  0
   -0.3800    1.9400    0.0000 C   0  0  2  0  0  0  0  0  0  0  0  0
   -1.6789    2.6902    0.0000 C   0  0  0  0  0  0  0  0  0  0  0  0
  2  1  1  6  0  0  0
  2  3  1  0  0  0  0
  3  4  1  0  0  0  0
  4  5  1  0  0  0  0
  5  6  1  0  0  0  0
  6  7  2  0  0  0  0
  6  8  1  0  0  0  0
  8  9  1  0  0  0  0
 10  9  1  6  0  0  0
  4 10  1  0  0  0  0
 11 10  1  1  0  0  0
 11 12  1  0  0  0  0
 12  2  1  6  0  0  0
 12 13  1  0  0  0  0
 13 14  1  1  0  0  0
 14 15  1  0  0  0  0
 15 16  1  0  0  0  0
 16 17  1  1  0  0  0
 16 18  1  0  0  0  0
 13 18  1  0  0  0  0
 18 19  1  1  0  0  0
 18 20  1  0  0  0  0
 21 20  1  0  0  0  0
 11 21  1  0  0  0  0
 21 22  1  1  0  0  0
M  END
> <InChI>
InChI=1S/C20H32O2/c1-11-8-13-9-14(21)4-5-15(13)18-12(2)10-20(3)16(19(11)18)6-7-17(20)22/h11-13,15-19,22H,4-10H2,1-3H3/t11-,12+,13?,15+,16+,17+,18-,19+,20+/m1/s1

> <InChIKey>
BXJOZHDZHHFMHC-UBCHSQKQSA-N

> <SMILES>
C[C@@H]1CC2CC(=O)CC[C@@H]2[C@@H]3[C@@H]1[C@@H]4CC[C@H](O)[C@@]4(C)C[C@@H]3C

> <Synonyms>


> <PUBCHEM_CID>


> <Molecular_formula>
C20H32O2

> <Major_Isotope_Mass>
304.240230264

> <ALogP>
3.459299999999999

> <Lipinski_Violations>
0

> <Insecticide_Likeness_Violations>
0

> <Post_Em_Herbicide_Likeness_Violations>
0

> <Metabolite_ID>
BTM00013

> <Reaction>
Reduction of alpha,beta-unsaturated carbon-carbon double bond adjacent to electron withdrawing group

> <Reaction_ID>
BTMR1209

> <Enzyme(s)>
EC 1.6.99.1

> <Biosystem>
GUTMICRO

> <Precursor_ID>


> <Precursor_SMILES>
C[C@@H]1CC2=CC(=O)CC[C@@H]2[C@@H]3[C@@H]1[C@@H]4CC[C@H](O)[C@@]4(C)C[C@@H]3C

> <Precursor_InChI>
InChI=1S/C20H30O2/c1-11-8-13-9-14(21)4-5-15(13)18-12(2)10-20(3)16(19(11)18)6-7-17(20)22/h9,11-12,15-19,22H,4-8,10H2,1-3H3/t11-,12+,15+,16+,17+,18-,19+,20+/m1/s1

> <Precursor_InChIKey>
KVIKZOGGZHCGFH-RJMNTABLSA-N

> <Precursor_ALogP>


> <Precursor_Major_Isotope_Mass>
302.2245

$$$$
