BTM00001
  CDK     09122622102D

 21 24  0  0  1  0  0  0  0  0999 V2000
    5.3384    2.2714    0.0000 C   0  0  0  0  0  0  0  0  0  0  0  0
    4.0389    1.5223    0.0000 C   0  0  2  0  0  0  0  0  0  0  0  0
    3.0424    3.7714    0.0000 O   0  0  0  0  0  0  0  0  0  0  0  0
    4.9189    0.3123    0.0000 C   0  0  0  0  0  0  0  0  0  0  0  0
    4.0389   -0.8977    0.0000 C   0  0  0  0  0  0  0  0  0  0  0  0
    2.6089   -0.4377    0.0000 C   0  0  1  0  0  0  0  0  0  0  0  0
    1.3089   -1.1877    0.0000 C   0  0  2  0  0  0  0  0  0  0  0  0
    1.3089   -2.6877    0.0000 C   0  0  0  0  0  0  0  0  0  0  0  0
    0.0089   -3.4377    0.0000 C   0  0  0  0  0  0  0  0  0  0  0  0
   -1.2911   -2.6877    0.0000 C   0  0  0  0  0  0  0  0  0  0  0  0
   -2.5911   -3.4377    0.0000 C   0  0  0  0  0  0  0  0  0  0  0  0
   -3.8911   -2.6877    0.0000 C   0  0  0  0  0  0  0  0  0  0  0  0
   -5.1900   -3.4379    0.0000 O   0  0  0  0  0  0  0  0  0  0  0  0
   -3.8911   -1.1877    0.0000 C   0  0  0  0  0  0  0  0  0  0  0  0
   -2.5911   -0.4377    0.0000 C   0  0  0  0  0  0  0  0  0  0  0  0
   -1.2911   -1.1877    0.0000 C   0  0  0  0  0  0  0  0  0  0  0  0
    0.0089   -0.4377    0.0000 C   0  0  0  0  0  0  0  0  0  0  0  0
    0.0089    1.0623    0.0000 C   0  0  0  0  0  0  0  0  0  0  0  0
    1.3089    1.8123    0.0000 C   0  0  0  0  0  0  0  0  0  0  0  0
    2.6089    1.0623    0.0000 C   0  0  2  0  0  0  0  0  0  0  0  0
    3.6075   -0.0570    0.0000 C   0  0  0  0  0  0  0  0  0  0  0  0
  2  1  1  6  0  0  0
  2  3  1  1  0  0  0
  2  4  1  0  0  0  0
  4  5  1  0  0  0  0
  6  5  1  1  0  0  0
  6  7  1  0  0  0  0
  7  8  1  6  0  0  0
  8  9  1  0  0  0  0
  9 10  1  0  0  0  0
 10 11  2  0  0  0  0
 11 12  1  0  0  0  0
 12 13  1  0  0  0  0
 12 14  1  0  0  0  0
 14 15  1  0  0  0  0
 15 16  1  0  0  0  0
 10 16  1  0  0  0  0
 16 17  2  0  0  0  0
  7 17  1  0  0  0  0
 17 18  1  0  0  0  0
 18 19  1  0  0  0  0
 19 20  1  0  0  0  0
  6 20  1  0  0  0  0
  2 20  1  0  0  0  0
 20 21  1  1  0  0  0
M  END
> <InChI>
InChI=1S/C19H28O2/c1-18-9-7-15-14-6-4-13(20)11-12(14)3-5-16(15)17(18)8-10-19(18,2)21/h11,13,16-17,20-21H,3-10H2,1-2H3/t13?,16-,17+,18+,19+/m1/s1

> <InChIKey>
QHUWLVQMWWWPJD-MWWGDSTRSA-N

> <SMILES>
C[C@]1(O)CC[C@H]2[C@@H]3CCC4=CC(O)CCC4=C3CC[C@@]21C

> <Synonyms>


> <PUBCHEM_CID>


> <Molecular_formula>
C19H28O2

> <Major_Isotope_Mass>
288.208930136

> <ALogP>
3.3161999999999994

> <Lipinski_Violations>
0

> <Insecticide_Likeness_Violations>
0

> <Post_Em_Herbicide_Likeness_Violations>
0

> <Metabolite_ID>
BTM00001

> <Reaction>
Reduction of carbonyl

> <Reaction_ID>
BTMR0368

> <Enzyme(s)>
EC 1.1.1.184

> <Biosystem>
HUMAN

> <Precursor_ID>


> <Precursor_SMILES>
C[C@]1(O)CC[C@H]2[C@@H]3CCC4=CC(=O)CCC4=C3CC[C@@]21C

> <Precursor_InChI>
InChI=1S/C19H26O2/c1-18-9-7-15-14-6-4-13(20)11-12(14)3-5-16(15)17(18)8-10-19(18,2)21/h11,16-17,21H,3-10H2,1-2H3/t16-,17+,18+,19+/m1/s1

> <Precursor_InChIKey>
RDJBOAMEIJEKEY-XWSJACJDSA-N

> <Precursor_ALogP>


> <Precursor_Major_Isotope_Mass>
286.1932

$$$$
BTM00002
  CDK     09122622102D

 22 25  0  0  1  0  0  0  0  0999 V2000
    5.3384    2.2714    0.0000 C   0  0  0  0  0  0  0  0  0  0  0  0
    4.0389    1.5223    0.0000 C   0  0  2  0  0  0  0  0  0  0  0  0
    3.0424    3.7714    0.0000 O   0  0  0  0  0  0  0  0  0  0  0  0
    4.9189    0.3123    0.0000 C   0  0  0  0  0  0  0  0  0  0  0  0
    4.0389   -0.8977    0.0000 C   0  0  0  0  0  0  0  0  0  0  0  0
    2.6089   -0.4377    0.0000 C   0  0  1  0  0  0  0  0  0  0  0  0
    1.3089   -1.1877    0.0000 C   0  0  2  0  0  0  0  0  0  0  0  0
    1.3089   -2.6877    0.0000 C   0  0  0  0  0  0  0  0  0  0  0  0
    0.0089   -3.4377    0.0000 C   0  0  0  0  0  0  0  0  0  0  0  0
   -1.2911   -2.6877    0.0000 C   0  0  0  0  0  0  0  0  0  0  0  0
   -2.5911   -3.4377    0.0000 C   0  0  0  0  0  0  0  0  0  0  0  0
   -3.8911   -2.6877    0.0000 C   0  0  0  0  0  0  0  0  0  0  0  0
   -5.1900   -3.4379    0.0000 O   0  0  0  0  0  0  0  0  0  0  0  0
   -3.8911   -1.1877    0.0000 C   0  0  0  0  0  0  0  0  0  0  0  0
   -2.5911   -0.4377    0.0000 C   0  0  0  0  0  0  0  0  0  0  0  0
   -1.2911   -1.1877    0.0000 C   0  0  0  0  0  0  0  0  0  0  0  0
    0.0089   -0.4377    0.0000 C   0  0  0  0  0  0  0  0  0  0  0  0
    0.0089    1.0623    0.0000 C   0  0  0  0  0  0  0  0  0  0  0  0
    1.3089    1.8123    0.0000 C   0  0  0  0  0  0  0  0  0  0  0  0
    2.6089    1.0623    0.0000 C   0  0  2  0  0  0  0  0  0  0  0  0
    3.6075   -0.0570    0.0000 C   0  0  0  0  0  0  0  0  0  0  0  0
   -1.2900    1.8125    0.0000 O   0  0  0  0  0  0  0  0  0  0  0  0
  2  1  1  6  0  0  0
  2  3  1  1  0  0  0
  2  4  1  0  0  0  0
  4  5  1  0  0  0  0
  6  5  1  1  0  0  0
  6  7  1  0  0  0  0
  7  8  1  6  0  0  0
  8  9  1  0  0  0  0
  9 10  1  0  0  0  0
 10 11  2  0  0  0  0
 11 12  1  0  0  0  0
 12 13  2  0  0  0  0
 12 14  1  0  0  0  0
 14 15  1  0  0  0  0
 15 16  1  0  0  0  0
 10 16  1  0  0  0  0
 16 17  2  0  0  0  0
  7 17  1  0  0  0  0
 17 18  1  0  0  0  0
 18 19  1  0  0  0  0
 19 20  1  0  0  0  0
  6 20  1  0  0  0  0
  2 20  1  0  0  0  0
 20 21  1  1  0  0  0
 22 18  1  0  0  0  0
M  END
> <InChI>
InChI=1S/C19H26O3/c1-18-10-16(21)17-13-6-4-12(20)9-11(13)3-5-14(17)15(18)7-8-19(18,2)22/h9,14-16,21-22H,3-8,10H2,1-2H3/t14-,15-,16?,18-,19-/m0/s1

> <InChIKey>
OKILRBIEYDEXSN-JVLJSLFSSA-N

> <SMILES>
C[C@]1(O)CC[C@H]2[C@@H]3CCC4=CC(=O)CCC4=C3C(C[C@@]21C)O

> <Synonyms>


> <PUBCHEM_CID>


> <Molecular_formula>
C19H26O3

> <Major_Isotope_Mass>
302.188194692

> <ALogP>
2.1748000000000003

> <Lipinski_Violations>
0

> <Insecticide_Likeness_Violations>
0

> <Post_Em_Herbicide_Likeness_Violations>
0

> <Metabolite_ID>
BTM00002

> <Reaction>
11-beta-Hydroxylation of sterol

> <Reaction_ID>
BTMR0406

> <Enzyme(s)>
EC 1.14.15.4

> <Biosystem>
HUMAN

> <Precursor_ID>


> <Precursor_SMILES>
C[C@]1(O)CC[C@H]2[C@@H]3CCC4=CC(=O)CCC4=C3CC[C@@]21C

> <Precursor_InChI>
InChI=1S/C19H26O2/c1-18-9-7-15-14-6-4-13(20)11-12(14)3-5-16(15)17(18)8-10-19(18,2)21/h11,16-17,21H,3-10H2,1-2H3/t16-,17+,18+,19+/m1/s1

> <Precursor_InChIKey>
RDJBOAMEIJEKEY-XWSJACJDSA-N

> <Precursor_ALogP>


> <Precursor_Major_Isotope_Mass>
286.1932

$$$$
BTM00003
  CDK     09122622102D

 33 37  0  0  1  0  0  0  0  0999 V2000
    4.8956    2.3402    0.0000 C   0  0  0  0  0  0  0  0  0  0  0  0
    3.5957    1.5917    0.0000 C   0  0  2  0  0  0  0  0  0  0  0  0
    2.7884    3.3996    0.0000 O   0  0  0  0  0  0  0  0  0  0  0  0
    4.4757    0.3717    0.0000 C   0  0  0  0  0  0  0  0  0  0  0  0
    3.5957   -0.8383    0.0000 C   0  0  0  0  0  0  0  0  0  0  0  0
    2.1657   -0.3783    0.0000 C   0  0  1  0  0  0  0  0  0  0  0  0
    0.8657   -1.1283    0.0000 C   0  0  2  0  0  0  0  0  0  0  0  0
    0.8657   -2.6283    0.0000 C   0  0  0  0  0  0  0  0  0  0  0  0
   -0.4343   -3.3783    0.0000 C   0  0  0  0  0  0  0  0  0  0  0  0
   -1.7343   -2.6283    0.0000 C   0  0  0  0  0  0  0  0  0  0  0  0
   -3.0343   -3.3783    0.0000 C   0  0  0  0  0  0  0  0  0  0  0  0
   -4.3343   -2.6283    0.0000 C   0  0  0  0  0  0  0  0  0  0  0  0
   -5.6332   -3.3785    0.0000 O   0  0  0  0  0  0  0  0  0  0  0  0
   -4.3343   -1.1283    0.0000 C   0  0  0  0  0  0  0  0  0  0  0  0
   -3.0343   -0.3783    0.0000 C   0  0  0  0  0  0  0  0  0  0  0  0
   -1.7343   -1.1283    0.0000 C   0  0  0  0  0  0  0  0  0  0  0  0
   -0.4343   -0.3783    0.0000 C   0  0  0  0  0  0  0  0  0  0  0  0
   -0.4343    1.1217    0.0000 C   0  0  0  0  0  0  0  0  0  0  0  0
    0.8657    1.8717    0.0000 C   0  0  0  0  0  0  0  0  0  0  0  0
    2.1657    1.1217    0.0000 C   0  0  2  0  0  0  0  0  0  0  0  0
    2.3197    2.6138    0.0000 C   0  0  0  0  0  0  0  0  0  0  0  0
    1.5745    6.1379    0.0000 O   0  0  0  0  0  0  0  0  0  0  0  0
    3.0658    5.9767    0.0000 C   0  0  0  0  0  0  0  0  0  0  0  0
    3.9655    7.2058    0.0000 C   0  0  0  0  0  0  0  0  0  0  0  0
    3.3631    8.5796    0.0000 O   0  0  0  0  0  0  0  0  0  0  0  0
    5.4618    7.0368    0.0000 C   0  0  0  0  0  0  0  0  0  0  0  0
    6.3496    8.2459    0.0000 O   0  0  0  0  0  0  0  0  0  0  0  0
    6.0647    5.6742    0.0000 C   0  0  0  0  0  0  0  0  0  0  0  0
    5.1793    4.4623    0.0000 O   0  0  0  0  0  0  0  0  0  0  0  0
    3.6687    4.6141    0.0000 C   0  0  0  0  0  0  0  0  0  0  0  0
    7.5560    5.5137    0.0000 C   0  0  0  0  0  0  0  0  0  0  0  0
    8.4408    6.7250    0.0000 O   0  0  0  0  0  0  0  0  0  0  0  0
    8.1627    4.1418    0.0000 O   0  0  0  0  0  0  0  0  0  0  0  0
  2  1  1  6  0  0  0
  2  3  1  1  0  0  0
  2  4  1  0  0  0  0
  4  5  1  0  0  0  0
  6  5  1  1  0  0  0
  6  7  1  0  0  0  0
  7  8  1  6  0  0  0
  8  9  1  0  0  0  0
  9 10  1  0  0  0  0
 10 11  2  0  0  0  0
 11 12  1  0  0  0  0
 12 13  2  0  0  0  0
 12 14  1  0  0  0  0
 14 15  1  0  0  0  0
 15 16  1  0  0  0  0
 10 16  1  0  0  0  0
 16 17  2  0  0  0  0
  7 17  1  0  0  0  0
 17 18  1  0  0  0  0
 18 19  1  0  0  0  0
 19 20  1  0  0  0  0
  6 20  1  0  0  0  0
  2 20  1  0  0  0  0
 20 21  1  1  0  0  0
 22 23  1  0  0  0  0
 23 24  1  0  0  0  0
 24 25  1  0  0  0  0
 24 26  1  0  0  0  0
 26 27  1  0  0  0  0
 26 28  1  0  0  0  0
 28 29  1  0  0  0  0
 29 30  1  0  0  0  0
 23 30  1  0  0  0  0
 30  3  1  0  0  0  0
 28 31  1  0  0  0  0
 31 32  1  0  0  0  0
 31 33  2  0  0  0  0
M  END
> <InChI>
InChI=1S/C25H34O8/c1-24-9-7-15-14-6-4-13(26)11-12(14)3-5-16(15)17(24)8-10-25(24,2)33-23-20(29)18(27)19(28)21(32-23)22(30)31/h11,16-21,23,27-29H,3-10H2,1-2H3,(H,30,31)/t16-,17+,18?,19?,20?,21?,23?,24+,25+/m1/s1

> <InChIKey>
CWQSMUWDWKLOKA-SUYGDKMQSA-N

> <SMILES>
C[C@]1(OC2OC(C(C(C2O)O)O)C(O)=O)CC[C@H]3[C@@H]4CCC5=CC(=O)CCC5=C4CC[C@@]31C

> <Synonyms>


> <PUBCHEM_CID>


> <Molecular_formula>
C25H34O8

> <Major_Isotope_Mass>
462.225368048

> <ALogP>
1.7386999999999946

> <Lipinski_Violations>
0

> <Insecticide_Likeness_Violations>
1

> <Post_Em_Herbicide_Likeness_Violations>
1

> <Metabolite_ID>
BTM00003

> <Reaction>
17-OH-Glucuronidation of sterol

> <Reaction_ID>
BTMR0163

> <Enzyme(s)>
EC 2.4.1.17

> <Biosystem>
HUMAN

> <Precursor_ID>


> <Precursor_SMILES>
C[C@]1(O)CC[C@H]2[C@@H]3CCC4=CC(=O)CCC4=C3CC[C@@]21C

> <Precursor_InChI>
InChI=1S/C19H26O2/c1-18-9-7-15-14-6-4-13(20)11-12(14)3-5-16(15)17(18)8-10-19(18,2)21/h11,16-17,21H,3-10H2,1-2H3/t16-,17+,18+,19+/m1/s1

> <Precursor_InChIKey>
RDJBOAMEIJEKEY-XWSJACJDSA-N

> <Precursor_ALogP>


> <Precursor_Major_Isotope_Mass>
286.1932

$$$$
BTM00004
  CDK     09122622102D

 22 25  0  0  1  0  0  0  0  0999 V2000
    5.3384    2.2714    0.0000 C   0  0  0  0  0  0  0  0  0  0  0  0
    4.0389    1.5223    0.0000 C   0  0  2  0  0  0  0  0  0  0  0  0
    3.0424    3.7714    0.0000 O   0  0  0  0  0  0  0  0  0  0  0  0
    4.9189    0.3123    0.0000 C   0  0  0  0  0  0  0  0  0  0  0  0
    4.0389   -0.8977    0.0000 C   0  0  0  0  0  0  0  0  0  0  0  0
    2.6089   -0.4377    0.0000 C   0  0  1  0  0  0  0  0  0  0  0  0
    1.3089   -1.1877    0.0000 C   0  0  2  0  0  0  0  0  0  0  0  0
    1.3089   -2.6877    0.0000 C   0  0  0  0  0  0  0  0  0  0  0  0
    0.0089   -3.4377    0.0000 C   0  0  0  0  0  0  0  0  0  0  0  0
   -1.2911   -2.6877    0.0000 C   0  0  0  0  0  0  0  0  0  0  0  0
   -2.5911   -3.4377    0.0000 C   0  0  0  0  0  0  0  0  0  0  0  0
   -3.8911   -2.6877    0.0000 C   0  0  0  0  0  0  0  0  0  0  0  0
   -5.1900   -3.4379    0.0000 O   0  0  0  0  0  0  0  0  0  0  0  0
   -3.8911   -1.1877    0.0000 C   0  0  0  0  0  0  0  0  0  0  0  0
   -2.5911   -0.4377    0.0000 C   0  0  0  0  0  0  0  0  0  0  0  0
   -1.2911   -1.1877    0.0000 C   0  0  0  0  0  0  0  0  0  0  0  0
    0.0089   -0.4377    0.0000 C   0  0  0  0  0  0  0  0  0  0  0  0
    0.0089    1.0623    0.0000 C   0  0  0  0  0  0  0  0  0  0  0  0
    1.3089    1.8123    0.0000 C   0  0  0  0  0  0  0  0  0  0  0  0
    2.6089    1.0623    0.0000 C   0  0  2  0  0  0  0  0  0  0  0  0
    3.6075   -0.0570    0.0000 C   0  0  0  0  0  0  0  0  0  0  0  0
    6.4189    0.3123    0.0000 O   0  0  0  0  0  0  0  0  0  0  0  0
  2  1  1  6  0  0  0
  2  3  1  1  0  0  0
  2  4  1  0  0  0  0
  4  5  1  0  0  0  0
  6  5  1  1  0  0  0
  6  7  1  0  0  0  0
  7  8  1  6  0  0  0
  8  9  1  0  0  0  0
  9 10  1  0  0  0  0
 10 11  2  0  0  0  0
 11 12  1  0  0  0  0
 12 13  2  0  0  0  0
 12 14  1  0  0  0  0
 14 15  1  0  0  0  0
 15 16  1  0  0  0  0
 10 16  1  0  0  0  0
 16 17  2  0  0  0  0
  7 17  1  0  0  0  0
 17 18  1  0  0  0  0
 18 19  1  0  0  0  0
 19 20  1  0  0  0  0
  6 20  1  0  0  0  0
  2 20  1  0  0  0  0
 20 21  1  1  0  0  0
 22  4  1  0  0  0  0
M  END
> <InChI>
InChI=1S/C19H26O3/c1-18-8-7-14-13-6-4-12(20)9-11(13)3-5-15(14)16(18)10-17(21)19(18,2)22/h9,15-17,21-22H,3-8,10H2,1-2H3/t15-,16+,17?,18+,19+/m1/s1

> <InChIKey>
YASZIFRMABQICL-GCOOVTJYSA-N

> <SMILES>
C[C@]1(O)C(C[C@H]2[C@@H]3CCC4=CC(=O)CCC4=C3CC[C@@]21C)O

> <Synonyms>


> <PUBCHEM_CID>


> <Molecular_formula>
C19H26O3

> <Major_Isotope_Mass>
302.18819469199997

> <ALogP>
2.309799999999999

> <Lipinski_Violations>
0

> <Insecticide_Likeness_Violations>
0

> <Post_Em_Herbicide_Likeness_Violations>
0

> <Metabolite_ID>
BTM00004

> <Reaction>
16-Hydroxylation of sterol

> <Reaction_ID>
BTMR0407

> <Enzyme(s)>
CYP1A2
CYP2A6
CYP2B6
CYP2C8
CYP2C9
CYP2C19
CYP2D6
CYP2E1
CYP3A4

> <Biosystem>
HUMAN

> <Precursor_ID>


> <Precursor_SMILES>
C[C@]1(O)CC[C@H]2[C@@H]3CCC4=CC(=O)CCC4=C3CC[C@@]21C

> <Precursor_InChI>
InChI=1S/C19H26O2/c1-18-9-7-15-14-6-4-13(20)11-12(14)3-5-16(15)17(18)8-10-19(18,2)21/h11,16-17,21H,3-10H2,1-2H3/t16-,17+,18+,19+/m1/s1

> <Precursor_InChIKey>
RDJBOAMEIJEKEY-XWSJACJDSA-N

> <Precursor_ALogP>


> <Precursor_Major_Isotope_Mass>
286.1932

$$$$
BTM00005
  CDK     09122622102D

 22 25  0  0  1  0  0  0  0  0999 V2000
    5.3384    2.2714    0.0000 C   0  0  0  0  0  0  0  0  0  0  0  0
    4.0389    1.5223    0.0000 C   0  0  2  0  0  0  0  0  0  0  0  0
    3.0424    3.7714    0.0000 O   0  0  0  0  0  0  0  0  0  0  0  0
    4.9189    0.3123    0.0000 C   0  0  0  0  0  0  0  0  0  0  0  0
    4.0389   -0.8977    0.0000 C   0  0  0  0  0  0  0  0  0  0  0  0
    2.6089   -0.4377    0.0000 C   0  0  1  0  0  0  0  0  0  0  0  0
    1.3089   -1.1877    0.0000 C   0  0  2  0  0  0  0  0  0  0  0  0
    1.3089   -2.6877    0.0000 C   0  0  0  0  0  0  0  0  0  0  0  0
    0.0089   -3.4377    0.0000 C   0  0  0  0  0  0  0  0  0  0  0  0
   -1.2911   -2.6877    0.0000 C   0  0  0  0  0  0  0  0  0  0  0  0
   -2.5911   -3.4377    0.0000 C   0  0  0  0  0  0  0  0  0  0  0  0
   -3.8911   -2.6877    0.0000 C   0  0  0  0  0  0  0  0  0  0  0  0
   -5.1900   -3.4379    0.0000 O   0  0  0  0  0  0  0  0  0  0  0  0
   -3.8911   -1.1877    0.0000 C   0  0  0  0  0  0  0  0  0  0  0  0
   -2.5911   -0.4377    0.0000 C   0  0  0  0  0  0  0  0  0  0  0  0
   -1.2911   -1.1877    0.0000 C   0  0  0  0  0  0  0  0  0  0  0  0
    0.0089   -0.4377    0.0000 C   0  0  0  0  0  0  0  0  0  0  0  0
    0.0089    1.0623    0.0000 C   0  0  0  0  0  0  0  0  0  0  0  0
    1.3089    1.8123    0.0000 C   0  0  0  0  0  0  0  0  0  0  0  0
    2.6089    1.0623    0.0000 C   0  0  2  0  0  0  0  0  0  0  0  0
    3.6075   -0.0570    0.0000 C   0  0  0  0  0  0  0  0  0  0  0  0
   -5.1900   -0.4375    0.0000 O   0  0  0  0  0  0  0  0  0  0  0  0
  2  1  1  6  0  0  0
  2  3  1  1  0  0  0
  2  4  1  0  0  0  0
  4  5  1  0  0  0  0
  6  5  1  1  0  0  0
  6  7  1  0  0  0  0
  7  8  1  6  0  0  0
  8  9  1  0  0  0  0
  9 10  1  0  0  0  0
 10 11  2  0  0  0  0
 11 12  1  0  0  0  0
 12 13  2  0  0  0  0
 12 14  1  0  0  0  0
 14 15  1  0  0  0  0
 15 16  1  0  0  0  0
 10 16  1  0  0  0  0
 16 17  2  0  0  0  0
  7 17  1  0  0  0  0
 17 18  1  0  0  0  0
 18 19  1  0  0  0  0
 19 20  1  0  0  0  0
  6 20  1  0  0  0  0
  2 20  1  0  0  0  0
 20 21  1  1  0  0  0
 22 14  1  0  0  0  0
M  END
> <InChI>
InChI=1S/C19H26O3/c1-18-7-5-12-13(15(18)6-8-19(18,2)22)4-3-11-9-16(20)17(21)10-14(11)12/h9,13,15,17,21-22H,3-8,10H2,1-2H3/t13-,15+,17?,18+,19+/m1/s1

> <InChIKey>
OULWALAWGCDOEJ-NGSSILKUSA-N

> <SMILES>
C[C@]1(O)CC[C@H]2[C@@H]3CCC4=CC(=O)C(CC4=C3CC[C@@]21C)O

> <Synonyms>


> <PUBCHEM_CID>


> <Molecular_formula>
C19H26O3

> <Major_Isotope_Mass>
302.18819469199997

> <ALogP>
2.5961999999999996

> <Lipinski_Violations>
0

> <Insecticide_Likeness_Violations>
0

> <Post_Em_Herbicide_Likeness_Violations>
0

> <Metabolite_ID>
BTM00005

> <Reaction>
2-Hydroxylation of sterol

> <Reaction_ID>
BTMR0398

> <Enzyme(s)>
CYP1A2
CYP2C19
CYP3A4

> <Biosystem>
HUMAN

> <Precursor_ID>


> <Precursor_SMILES>
C[C@]1(O)CC[C@H]2[C@@H]3CCC4=CC(=O)CCC4=C3CC[C@@]21C

> <Precursor_InChI>
InChI=1S/C19H26O2/c1-18-9-7-15-14-6-4-13(20)11-12(14)3-5-16(15)17(18)8-10-19(18,2)21/h11,16-17,21H,3-10H2,1-2H3/t16-,17+,18+,19+/m1/s1

> <Precursor_InChIKey>
RDJBOAMEIJEKEY-XWSJACJDSA-N

> <Precursor_ALogP>


> <Precursor_Major_Isotope_Mass>
286.1932

$$$$
BTM00006
  CDK     09122622102D

 22 25  0  0  1  0  0  0  0  0999 V2000
    5.3384    2.2714    0.0000 C   0  0  0  0  0  0  0  0  0  0  0  0
    4.0389    1.5223    0.0000 C   0  0  2  0  0  0  0  0  0  0  0  0
    3.0424    3.7714    0.0000 O   0  0  0  0  0  0  0  0  0  0  0  0
    4.9189    0.3123    0.0000 C   0  0  0  0  0  0  0  0  0  0  0  0
    4.0389   -0.8977    0.0000 C   0  0  0  0  0  0  0  0  0  0  0  0
    2.6089   -0.4377    0.0000 C   0  0  1  0  0  0  0  0  0  0  0  0
    1.3089   -1.1877    0.0000 C   0  0  2  0  0  0  0  0  0  0  0  0
    1.3089   -2.6877    0.0000 C   0  0  0  0  0  0  0  0  0  0  0  0
    0.0089   -3.4377    0.0000 C   0  0  0  0  0  0  0  0  0  0  0  0
   -1.2911   -2.6877    0.0000 C   0  0  0  0  0  0  0  0  0  0  0  0
   -2.5911   -3.4377    0.0000 C   0  0  0  0  0  0  0  0  0  0  0  0
   -3.8911   -2.6877    0.0000 C   0  0  0  0  0  0  0  0  0  0  0  0
   -5.1900   -3.4379    0.0000 O   0  0  0  0  0  0  0  0  0  0  0  0
   -3.8911   -1.1877    0.0000 C   0  0  0  0  0  0  0  0  0  0  0  0
   -2.5911   -0.4377    0.0000 C   0  0  0  0  0  0  0  0  0  0  0  0
   -1.2911   -1.1877    0.0000 C   0  0  0  0  0  0  0  0  0  0  0  0
    0.0089   -0.4377    0.0000 C   0  0  0  0  0  0  0  0  0  0  0  0
    0.0089    1.0623    0.0000 C   0  0  0  0  0  0  0  0  0  0  0  0
    1.3089    1.8123    0.0000 C   0  0  0  0  0  0  0  0  0  0  0  0
    2.6089    1.0623    0.0000 C   0  0  2  0  0  0  0  0  0  0  0  0
    3.6075   -0.0570    0.0000 C   0  0  0  0  0  0  0  0  0  0  0  0
   -2.5911   -4.9377    0.0000 O   0  0  0  0  0  0  0  0  0  0  0  0
  2  1  1  6  0  0  0
  2  3  1  1  0  0  0
  2  4  1  0  0  0  0
  4  5  1  0  0  0  0
  6  5  1  1  0  0  0
  6  7  1  0  0  0  0
  7  8  1  6  0  0  0
  8  9  1  0  0  0  0
  9 10  1  0  0  0  0
 10 11  2  0  0  0  0
 11 12  1  0  0  0  0
 12 13  2  0  0  0  0
 12 14  1  0  0  0  0
 14 15  1  0  0  0  0
 15 16  1  0  0  0  0
 10 16  1  0  0  0  0
 16 17  2  0  0  0  0
  7 17  1  0  0  0  0
 17 18  1  0  0  0  0
 18 19  1  0  0  0  0
 19 20  1  0  0  0  0
  6 20  1  0  0  0  0
  2 20  1  0  0  0  0
 20 21  1  1  0  0  0
 22 11  1  0  0  0  0
M  END
> <InChI>
InChI=1S/C19H26O3/c1-18-9-7-12-11-5-6-16(20)17(21)14(11)4-3-13(12)15(18)8-10-19(18,2)22/h13,15,21-22H,3-10H2,1-2H3/t13-,15+,18+,19+/m1/s1

> <InChIKey>
JQHQVEYKZQLGCR-UVDFWXMISA-N

> <SMILES>
C[C@]1(O)CC[C@H]2[C@@H]3CCC4=C(C(=O)CCC4=C3CC[C@@]21C)O

> <Synonyms>


> <PUBCHEM_CID>


> <Molecular_formula>
C19H26O3

> <Major_Isotope_Mass>
302.18819469199997

> <ALogP>
2.7135999999999996

> <Lipinski_Violations>
0

> <Insecticide_Likeness_Violations>
0

> <Post_Em_Herbicide_Likeness_Violations>
0

> <Metabolite_ID>
BTM00006

> <Reaction>
4-Hydroxylation of sterol

> <Reaction_ID>
BTMR0400

> <Enzyme(s)>
CYP1A2
CYP3A4

> <Biosystem>
HUMAN

> <Precursor_ID>


> <Precursor_SMILES>
C[C@]1(O)CC[C@H]2[C@@H]3CCC4=CC(=O)CCC4=C3CC[C@@]21C

> <Precursor_InChI>
InChI=1S/C19H26O2/c1-18-9-7-15-14-6-4-13(20)11-12(14)3-5-16(15)17(18)8-10-19(18,2)21/h11,16-17,21H,3-10H2,1-2H3/t16-,17+,18+,19+/m1/s1

> <Precursor_InChIKey>
RDJBOAMEIJEKEY-XWSJACJDSA-N

> <Precursor_ALogP>


> <Precursor_Major_Isotope_Mass>
286.1932

$$$$
BTM00007
  CDK     09122622102D

 22 25  0  0  1  0  0  0  0  0999 V2000
    5.3384    2.2714    0.0000 C   0  0  0  0  0  0  0  0  0  0  0  0
    4.0389    1.5223    0.0000 C   0  0  2  0  0  0  0  0  0  0  0  0
    3.0424    3.7714    0.0000 O   0  0  0  0  0  0  0  0  0  0  0  0
    4.9189    0.3123    0.0000 C   0  0  0  0  0  0  0  0  0  0  0  0
    4.0389   -0.8977    0.0000 C   0  0  0  0  0  0  0  0  0  0  0  0
    2.6089   -0.4377    0.0000 C   0  0  1  0  0  0  0  0  0  0  0  0
    1.3089   -1.1877    0.0000 C   0  0  2  0  0  0  0  0  0  0  0  0
    1.3089   -2.6877    0.0000 C   0  0  0  0  0  0  0  0  0  0  0  0
    0.0089   -3.4377    0.0000 C   0  0  0  0  0  0  0  0  0  0  0  0
   -1.2911   -2.6877    0.0000 C   0  0  0  0  0  0  0  0  0  0  0  0
   -2.5911   -3.4377    0.0000 C   0  0  0  0  0  0  0  0  0  0  0  0
   -3.8911   -2.6877    0.0000 C   0  0  0  0  0  0  0  0  0  0  0  0
   -5.1900   -3.4379    0.0000 O   0  0  0  0  0  0  0  0  0  0  0  0
   -3.8911   -1.1877    0.0000 C   0  0  0  0  0  0  0  0  0  0  0  0
   -2.5911   -0.4377    0.0000 C   0  0  0  0  0  0  0  0  0  0  0  0
   -1.2911   -1.1877    0.0000 C   0  0  0  0  0  0  0  0  0  0  0  0
    0.0089   -0.4377    0.0000 C   0  0  0  0  0  0  0  0  0  0  0  0
    0.0089    1.0623    0.0000 C   0  0  0  0  0  0  0  0  0  0  0  0
    1.3089    1.8123    0.0000 C   0  0  0  0  0  0  0  0  0  0  0  0
    2.6089    1.0623    0.0000 C   0  0  2  0  0  0  0  0  0  0  0  0
    3.6075   -0.0570    0.0000 C   0  0  0  0  0  0  0  0  0  0  0  0
    0.0089   -4.9377    0.0000 O   0  0  0  0  0  0  0  0  0  0  0  0
  2  1  1  6  0  0  0
  2  3  1  1  0  0  0
  2  4  1  0  0  0  0
  4  5  1  0  0  0  0
  6  5  1  1  0  0  0
  6  7  1  0  0  0  0
  7  8  1  6  0  0  0
  8  9  1  0  0  0  0
  9 10  1  0  0  0  0
 10 11  2  0  0  0  0
 11 12  1  0  0  0  0
 12 13  2  0  0  0  0
 12 14  1  0  0  0  0
 14 15  1  0  0  0  0
 15 16  1  0  0  0  0
 10 16  1  0  0  0  0
 16 17  2  0  0  0  0
  7 17  1  0  0  0  0
 17 18  1  0  0  0  0
 18 19  1  0  0  0  0
 19 20  1  0  0  0  0
  6 20  1  0  0  0  0
  2 20  1  0  0  0  0
 20 21  1  1  0  0  0
 22  9  1  0  0  0  0
M  END
> <InChI>
InChI=1S/C19H26O3/c1-18-7-5-13-12-4-3-11(20)9-15(12)17(21)10-14(13)16(18)6-8-19(18,2)22/h9,14,16-17,21-22H,3-8,10H2,1-2H3/t14-,16+,17?,18+,19+/m1/s1

> <InChIKey>
QVUYDBPUNNYHHD-OHAFEYBFSA-N

> <SMILES>
C[C@]1(O)CC[C@H]2[C@@H]3CC(C4=CC(=O)CCC4=C3CC[C@@]21C)O

> <Synonyms>


> <PUBCHEM_CID>


> <Molecular_formula>
C19H26O3

> <Major_Isotope_Mass>
302.18819469199997

> <ALogP>
2.1748000000000003

> <Lipinski_Violations>
0

> <Insecticide_Likeness_Violations>
0

> <Post_Em_Herbicide_Likeness_Violations>
0

> <Metabolite_ID>
BTM00007

> <Reaction>
6-Hydroxylation of sterol

> <Reaction_ID>
BTMR0402

> <Enzyme(s)>
CYP2A6
CYP2B6
CYP2C8
CYP2C9
CYP2C19
CYP2D6
CYP3A4

> <Biosystem>
HUMAN

> <Precursor_ID>


> <Precursor_SMILES>
C[C@]1(O)CC[C@H]2[C@@H]3CCC4=CC(=O)CCC4=C3CC[C@@]21C

> <Precursor_InChI>
InChI=1S/C19H26O2/c1-18-9-7-15-14-6-4-13(20)11-12(14)3-5-16(15)17(18)8-10-19(18,2)21/h11,16-17,21H,3-10H2,1-2H3/t16-,17+,18+,19+/m1/s1

> <Precursor_InChIKey>
RDJBOAMEIJEKEY-XWSJACJDSA-N

> <Precursor_ALogP>


> <Precursor_Major_Isotope_Mass>
286.1932

$$$$
BTM00008
  CDK     09122622102D

 22 25  0  0  1  0  0  0  0  0999 V2000
    5.0914    1.9019    0.0000 C   0  0  0  0  0  0  0  0  0  0  0  0
    3.7914    1.1534    0.0000 C   0  0  2  0  0  0  0  0  0  0  0  0
    2.7884    3.3996    0.0000 O   0  0  0  0  0  0  0  0  0  0  0  0
    4.6714   -0.0666    0.0000 C   0  0  0  0  0  0  0  0  0  0  0  0
    3.7914   -1.2766    0.0000 C   0  0  0  0  0  0  0  0  0  0  0  0
    2.3614   -0.8166    0.0000 C   0  0  1  0  0  0  0  0  0  0  0  0
    1.0614   -1.5666    0.0000 C   0  0  2  0  0  0  0  0  0  0  0  0
    1.0614   -3.0666    0.0000 C   0  0  0  0  0  0  0  0  0  0  0  0
   -0.2386   -3.8166    0.0000 C   0  0  0  0  0  0  0  0  0  0  0  0
   -1.5386   -3.0666    0.0000 C   0  0  0  0  0  0  0  0  0  0  0  0
   -2.8386   -3.8166    0.0000 C   0  0  0  0  0  0  0  0  0  0  0  0
   -4.1386   -3.0666    0.0000 C   0  0  0  0  0  0  0  0  0  0  0  0
   -5.4375   -3.8168    0.0000 O   0  0  0  0  0  0  0  0  0  0  0  0
   -4.1386   -1.5666    0.0000 C   0  0  0  0  0  0  0  0  0  0  0  0
   -2.8386   -0.8166    0.0000 C   0  0  0  0  0  0  0  0  0  0  0  0
   -1.5386   -1.5666    0.0000 C   0  0  0  0  0  0  0  0  0  0  0  0
   -0.2386   -0.8166    0.0000 C   0  0  0  0  0  0  0  0  0  0  0  0
   -0.2386    0.6834    0.0000 C   0  0  0  0  0  0  0  0  0  0  0  0
    1.0614    1.4334    0.0000 C   0  0  0  0  0  0  0  0  0  0  0  0
    2.3614    0.6834    0.0000 C   0  0  2  0  0  0  0  0  0  0  0  0
    3.3706   -0.4263    0.0000 C   0  0  0  0  0  0  0  0  0  0  0  0
    5.0931    3.4019    0.0000 O   0  0  0  0  0  0  0  0  0  0  0  0
  2  1  1  6  0  0  0
  2  3  1  1  0  0  0
  2  4  1  0  0  0  0
  4  5  1  0  0  0  0
  6  5  1  1  0  0  0
  6  7  1  0  0  0  0
  7  8  1  6  0  0  0
  8  9  1  0  0  0  0
  9 10  1  0  0  0  0
 10 11  2  0  0  0  0
 11 12  1  0  0  0  0
 12 13  2  0  0  0  0
 12 14  1  0  0  0  0
 14 15  1  0  0  0  0
 15 16  1  0  0  0  0
 10 16  1  0  0  0  0
 16 17  2  0  0  0  0
  7 17  1  0  0  0  0
 17 18  1  0  0  0  0
 18 19  1  0  0  0  0
 19 20  1  0  0  0  0
  6 20  1  0  0  0  0
  2 20  1  0  0  0  0
 20 21  1  1  0  0  0
 22  1  1  0  0  0  0
M  END
> <InChI>
InChI=1S/C19H26O3/c1-18-8-6-15-14-5-3-13(21)10-12(14)2-4-16(15)17(18)7-9-19(18,22)11-20/h10,16-17,20,22H,2-9,11H2,1H3/t16-,17+,18+,19-/m1/s1

> <InChIKey>
LASDPKABTDBFMK-YDZRNGNQSA-N

> <SMILES>
C([C@]1(O)CC[C@H]2[C@@H]3CCC4=CC(=O)CCC4=C3CC[C@@]21C)O

> <Synonyms>


> <PUBCHEM_CID>


> <Molecular_formula>
C19H26O3

> <Major_Isotope_Mass>
302.18819469199997

> <ALogP>
2.3884999999999987

> <Lipinski_Violations>
0

> <Insecticide_Likeness_Violations>
0

> <Post_Em_Herbicide_Likeness_Violations>
0

> <Metabolite_ID>
BTM00008

> <Reaction>
Hydroxylation of methyl carbon adjacent to aliphatic ring

> <Reaction_ID>
BTMR0054

> <Enzyme(s)>
CYP2B6
CYP2C8
CYP2C9
CYP2C19
CYP2D6
CYP3A4

> <Biosystem>
HUMAN

> <Precursor_ID>


> <Precursor_SMILES>
C[C@]1(O)CC[C@H]2[C@@H]3CCC4=CC(=O)CCC4=C3CC[C@@]21C

> <Precursor_InChI>
InChI=1S/C19H26O2/c1-18-9-7-15-14-6-4-13(20)11-12(14)3-5-16(15)17(18)8-10-19(18,2)21/h11,16-17,21H,3-10H2,1-2H3/t16-,17+,18+,19+/m1/s1

> <Precursor_InChIKey>
RDJBOAMEIJEKEY-XWSJACJDSA-N

> <Precursor_ALogP>


> <Precursor_Major_Isotope_Mass>
286.1932

$$$$
BTM00009
  CDK     09122622102D

 22 25  0  0  1  0  0  0  0  0999 V2000
    4.6999    2.7785    0.0000 C   0  0  0  0  0  0  0  0  0  0  0  0
    3.4000    2.0300    0.0000 C   0  0  2  0  0  0  0  0  0  0  0  0
    3.0355    3.4850    0.0000 O   0  0  0  0  0  0  0  0  0  0  0  0
    4.2800    0.8100    0.0000 C   0  0  0  0  0  0  0  0  0  0  0  0
    3.4000   -0.4000    0.0000 C   0  0  0  0  0  0  0  0  0  0  0  0
    1.9700    0.0600    0.0000 C   0  0  1  0  0  0  0  0  0  0  0  0
    0.6700   -0.6900    0.0000 C   0  0  2  0  0  0  0  0  0  0  0  0
    0.6700   -2.1900    0.0000 C   0  0  0  0  0  0  0  0  0  0  0  0
   -0.6300   -2.9400    0.0000 C   0  0  0  0  0  0  0  0  0  0  0  0
   -1.9300   -2.1900    0.0000 C   0  0  0  0  0  0  0  0  0  0  0  0
   -3.2300   -2.9400    0.0000 C   0  0  0  0  0  0  0  0  0  0  0  0
   -4.5300   -2.1900    0.0000 C   0  0  0  0  0  0  0  0  0  0  0  0
   -5.8289   -2.9402    0.0000 O   0  0  0  0  0  0  0  0  0  0  0  0
   -4.5300   -0.6900    0.0000 C   0  0  0  0  0  0  0  0  0  0  0  0
   -3.2300    0.0600    0.0000 C   0  0  0  0  0  0  0  0  0  0  0  0
   -1.9300   -0.6900    0.0000 C   0  0  0  0  0  0  0  0  0  0  0  0
   -0.6300    0.0600    0.0000 C   0  0  0  0  0  0  0  0  0  0  0  0
   -0.6300    1.5600    0.0000 C   0  0  0  0  0  0  0  0  0  0  0  0
    0.6700    2.3100    0.0000 C   0  0  0  0  0  0  0  0  0  0  0  0
    1.9700    1.5600    0.0000 C   0  0  2  0  0  0  0  0  0  0  0  0
    2.1240    3.0521    0.0000 C   0  0  0  0  0  0  0  0  0  0  0  0
    0.9089    3.9315    0.0000 O   0  0  0  0  0  0  0  0  0  0  0  0
  2  1  1  6  0  0  0
  2  3  1  1  0  0  0
  2  4  1  0  0  0  0
  4  5  1  0  0  0  0
  6  5  1  1  0  0  0
  6  7  1  0  0  0  0
  7  8  1  6  0  0  0
  8  9  1  0  0  0  0
  9 10  1  0  0  0  0
 10 11  2  0  0  0  0
 11 12  1  0  0  0  0
 12 13  2  0  0  0  0
 12 14  1  0  0  0  0
 14 15  1  0  0  0  0
 15 16  1  0  0  0  0
 10 16  1  0  0  0  0
 16 17  2  0  0  0  0
  7 17  1  0  0  0  0
 17 18  1  0  0  0  0
 18 19  1  0  0  0  0
 19 20  1  0  0  0  0
  6 20  1  0  0  0  0
  2 20  1  0  0  0  0
 20 21  1  1  0  0  0
 22 21  1  0  0  0  0
M  END
> <InChI>
InChI=1S/C19H26O3/c1-18(22)8-7-17-16-4-2-12-10-13(21)3-5-14(12)15(16)6-9-19(17,18)11-20/h10,16-17,20,22H,2-9,11H2,1H3/t16-,17+,18+,19-/m1/s1

> <InChIKey>
OMCVURPRVJFJRC-YDZRNGNQSA-N

> <SMILES>
C[C@]1(O)CC[C@H]2[C@@H]3CCC4=CC(=O)CCC4=C3CC[C@@]21CO

> <Synonyms>


> <PUBCHEM_CID>


> <Molecular_formula>
C19H26O3

> <Major_Isotope_Mass>
302.188194692

> <ALogP>
2.1859999999999995

> <Lipinski_Violations>
0

> <Insecticide_Likeness_Violations>
0

> <Post_Em_Herbicide_Likeness_Violations>
0

> <Metabolite_ID>
BTM00009

> <Reaction>
Hydroxylation of methyl carbon adjacent to aliphatic ring

> <Reaction_ID>
BTMR0054

> <Enzyme(s)>
CYP2B6
CYP2C8
CYP2C9
CYP2C19
CYP2D6
CYP3A4

> <Biosystem>
HUMAN

> <Precursor_ID>


> <Precursor_SMILES>
C[C@]1(O)CC[C@H]2[C@@H]3CCC4=CC(=O)CCC4=C3CC[C@@]21C

> <Precursor_InChI>
InChI=1S/C19H26O2/c1-18-9-7-15-14-6-4-13(20)11-12(14)3-5-16(15)17(18)8-10-19(18,2)21/h11,16-17,21H,3-10H2,1-2H3/t16-,17+,18+,19+/m1/s1

> <Precursor_InChIKey>
RDJBOAMEIJEKEY-XWSJACJDSA-N

> <Precursor_ALogP>


> <Precursor_Major_Isotope_Mass>
286.1932

$$$$
BTM00010
  CDK     09122622102D

 21 24  0  0  1  0  0  0  0  0999 V2000
    5.3384    2.2714    0.0000 C   0  0  0  0  0  0  0  0  0  0  0  0
    4.0389    1.5223    0.0000 C   0  0  2  0  0  0  0  0  0  0  0  0
    3.0424    3.7714    0.0000 O   0  0  0  0  0  0  0  0  0  0  0  0
    4.9189    0.3123    0.0000 C   0  0  0  0  0  0  0  0  0  0  0  0
    4.0389   -0.8977    0.0000 C   0  0  0  0  0  0  0  0  0  0  0  0
    2.6089   -0.4377    0.0000 C   0  0  1  0  0  0  0  0  0  0  0  0
    1.3089   -1.1877    0.0000 C   0  0  2  0  0  0  0  0  0  0  0  0
    1.3089   -2.6877    0.0000 C   0  0  0  0  0  0  0  0  0  0  0  0
    0.0089   -3.4377    0.0000 C   0  0  0  0  0  0  0  0  0  0  0  0
   -1.2911   -2.6877    0.0000 C   0  0  0  0  0  0  0  0  0  0  0  0
   -2.5911   -3.4377    0.0000 C   0  0  0  0  0  0  0  0  0  0  0  0
   -3.8911   -2.6877    0.0000 C   0  0  0  0  0  0  0  0  0  0  0  0
   -5.1900   -3.4379    0.0000 O   0  0  0  0  0  0  0  0  0  0  0  0
   -3.8911   -1.1877    0.0000 C   0  0  0  0  0  0  0  0  0  0  0  0
   -2.5911   -0.4377    0.0000 C   0  0  0  0  0  0  0  0  0  0  0  0
   -1.2911   -1.1877    0.0000 C   0  0  0  0  0  0  0  0  0  0  0  0
    0.0089   -0.4377    0.0000 C   0  0  0  0  0  0  0  0  0  0  0  0
    0.0089    1.0623    0.0000 C   0  0  0  0  0  0  0  0  0  0  0  0
    1.3089    1.8123    0.0000 C   0  0  0  0  0  0  0  0  0  0  0  0
    2.6089    1.0623    0.0000 C   0  0  2  0  0  0  0  0  0  0  0  0
    3.6075   -0.0570    0.0000 C   0  0  0  0  0  0  0  0  0  0  0  0
  2  1  1  6  0  0  0
  2  3  1  1  0  0  0
  2  4  1  0  0  0  0
  4  5  1  0  0  0  0
  6  5  1  1  0  0  0
  6  7  1  0  0  0  0
  7  8  1  6  0  0  0
  8  9  1  0  0  0  0
  9 10  1  0  0  0  0
 10 11  1  0  0  0  0
 11 12  1  0  0  0  0
 12 13  2  0  0  0  0
 12 14  1  0  0  0  0
 14 15  1  0  0  0  0
 15 16  1  0  0  0  0
 10 16  1  0  0  0  0
 16 17  2  0  0  0  0
  7 17  1  0  0  0  0
 17 18  1  0  0  0  0
 18 19  1  0  0  0  0
 19 20  1  0  0  0  0
  6 20  1  0  0  0  0
  2 20  1  0  0  0  0
 20 21  1  1  0  0  0
M  END
> <InChI>
InChI=1S/C19H28O2/c1-18-9-7-15-14-6-4-13(20)11-12(14)3-5-16(15)17(18)8-10-19(18,2)21/h12,16-17,21H,3-11H2,1-2H3/t12?,16-,17+,18+,19+/m1/s1

> <InChIKey>
YZRDOZRJZNUGGC-YLIUKAETSA-N

> <SMILES>
C[C@]1(O)CC[C@H]2[C@@H]3CCC4CC(=O)CCC4=C3CC[C@@]21C

> <Synonyms>


> <PUBCHEM_CID>


> <Molecular_formula>
C19H28O2

> <Major_Isotope_Mass>
288.208930136

> <ALogP>
3.105299999999998

> <Lipinski_Violations>
0

> <Insecticide_Likeness_Violations>
0

> <Post_Em_Herbicide_Likeness_Violations>
0

> <Metabolite_ID>
BTM00010

> <Reaction>
Reduction of alpha,beta-unsaturated carbon-carbon double bond adjacent to electron withdrawing group

> <Reaction_ID>
BTMR1209

> <Enzyme(s)>
EC 1.6.99.1

> <Biosystem>
GUTMICRO

> <Precursor_ID>


> <Precursor_SMILES>
C[C@]1(O)CC[C@H]2[C@@H]3CCC4=CC(=O)CCC4=C3CC[C@@]21C

> <Precursor_InChI>
InChI=1S/C19H26O2/c1-18-9-7-15-14-6-4-13(20)11-12(14)3-5-16(15)17(18)8-10-19(18,2)21/h11,16-17,21H,3-10H2,1-2H3/t16-,17+,18+,19+/m1/s1

> <Precursor_InChIKey>
RDJBOAMEIJEKEY-XWSJACJDSA-N

> <Precursor_ALogP>


> <Precursor_Major_Isotope_Mass>
286.1932

$$$$
