BTM00001
  CDK     09122622072D

 22 25  0  0  1  0  0  0  0  0999 V2000
    2.3787    3.4316    0.0000 C   0  0  0  0  0  0  0  0  0  0  0  0
    2.2200    1.9400    0.0000 C   0  0  2  0  0  0  0  0  0  0  0  0
    0.9200    2.6900    0.0000 C   0  0  0  0  0  0  0  0  0  0  0  0
   -0.3800    1.9400    0.0000 C   0  0  0  0  0  0  0  0  0  0  0  0
   -0.3800    0.4400    0.0000 C   0  0  1  0  0  0  0  0  0  0  0  0
    0.9200   -0.3100    0.0000 C   0  0  1  0  0  0  0  0  0  0  0  0
    0.9200   -1.8100    0.0000 C   0  0  0  0  0  0  0  0  0  0  0  0
   -0.3800   -2.5600    0.0000 C   0  0  0  0  0  0  0  0  0  0  0  0
   -1.6800   -1.8100    0.0000 C   0  0  0  0  0  0  0  0  0  0  0  0
   -2.9800   -2.5600    0.0000 C   0  0  0  0  0  0  0  0  0  0  0  0
   -2.9800   -4.0600    0.0000 O   0  0  0  0  0  0  0  0  0  0  0  0
   -4.2800   -1.8100    0.0000 C   0  0  0  0  0  0  0  0  0  0  0  0
   -5.5789   -2.5602    0.0000 O   0  0  0  0  0  0  0  0  0  0  0  0
   -4.2800   -0.3100    0.0000 C   0  0  0  0  0  0  0  0  0  0  0  0
   -2.9800    0.4400    0.0000 C   0  0  0  0  0  0  0  0  0  0  0  0
   -1.6800   -0.3100    0.0000 C   0  0  2  0  0  0  0  0  0  0  0  0
   -1.6800    1.1900    0.0000 C   0  0  0  0  0  0  0  0  0  0  0  0
    2.2200    0.4400    0.0000 C   0  0  2  0  0  0  0  0  0  0  0  0
    3.6500   -0.0200    0.0000 C   0  0  0  0  0  0  0  0  0  0  0  0
    4.5300    1.1900    0.0000 C   0  0  0  0  0  0  0  0  0  0  0  0
    3.6500    2.4000    0.0000 C   0  0  2  0  0  0  0  0  0  0  0  0
    4.1153    3.8260    0.0000 O   0  0  0  0  0  0  0  0  0  0  0  0
  2  1  1  1  0  0  0
  2  3  1  0  0  0  0
  3  4  1  0  0  0  0
  5  4  1  1  0  0  0
  5  6  1  0  0  0  0
  6  7  1  6  0  0  0
  7  8  1  0  0  0  0
  8  9  1  0  0  0  0
  9 10  2  0  0  0  0
 10 11  1  0  0  0  0
 10 12  1  0  0  0  0
 12 13  1  0  0  0  0
 12 14  1  0  0  0  0
 14 15  1  0  0  0  0
 15 16  1  0  0  0  0
  9 16  1  0  0  0  0
  5 16  1  0  0  0  0
 16 17  1  1  0  0  0
  6 18  1  0  0  0  0
  2 18  1  0  0  0  0
 18 19  1  1  0  0  0
 19 20  1  0  0  0  0
 20 21  1  0  0  0  0
  2 21  1  0  0  0  0
 21 22  1  1  0  0  0
M  END
> <InChI>
InChI=1S/C19H30O3/c1-18-10-8-15(20)17(22)14(18)4-3-11-12-5-6-16(21)19(12,2)9-7-13(11)18/h11-13,15-16,20-22H,3-10H2,1-2H3/t11-,12-,13-,15?,16-,18+,19-/m0/s1

> <InChIKey>
NNNZMYLEYVRNMR-PZYRHHNISA-N

> <SMILES>
C[C@]12CC[C@H]3[C@@H](CCC4=C(O)C(O)CC[C@@]43C)[C@@H]1CC[C@@H]2O

> <Synonyms>


> <PUBCHEM_CID>


> <Molecular_formula>
C19H30O3

> <Major_Isotope_Mass>
306.21949482

> <ALogP>
2.8097

> <Lipinski_Violations>
0

> <Insecticide_Likeness_Violations>
1

> <Post_Em_Herbicide_Likeness_Violations>
1

> <Metabolite_ID>
BTM00001

> <Reaction>
Reduction of carbonyl

> <Reaction_ID>
BTMR0368

> <Enzyme(s)>
EC 1.1.1.184

> <Biosystem>
HUMAN

> <Precursor_ID>


> <Precursor_SMILES>
C[C@]12CC[C@H]3[C@@H](CCC4=C(O)C(=O)CC[C@@]43C)[C@@H]1CC[C@@H]2O

> <Precursor_InChI>
InChI=1S/C19H28O3/c1-18-10-8-15(20)17(22)14(18)4-3-11-12-5-6-16(21)19(12,2)9-7-13(11)18/h11-13,16,21-22H,3-10H2,1-2H3/t11-,12-,13-,16-,18+,19-/m0/s1

> <Precursor_InChIKey>
BQOIJSIMMIDHMO-FBPKJDBXSA-N

> <Precursor_ALogP>


> <Precursor_Major_Isotope_Mass>
304.2038

$$$$
BTM00002
  CDK     09122622072D

 22 25  0  0  1  0  0  0  0  0999 V2000
    2.3787    3.4316    0.0000 C   0  0  0  0  0  0  0  0  0  0  0  0
    2.2200    1.9400    0.0000 C   0  0  2  0  0  0  0  0  0  0  0  0
    0.9200    2.6900    0.0000 C   0  0  0  0  0  0  0  0  0  0  0  0
   -0.3800    1.9400    0.0000 C   0  0  0  0  0  0  0  0  0  0  0  0
   -0.3800    0.4400    0.0000 C   0  0  1  0  0  0  0  0  0  0  0  0
    0.9200   -0.3100    0.0000 C   0  0  1  0  0  0  0  0  0  0  0  0
    0.9200   -1.8100    0.0000 C   0  0  0  0  0  0  0  0  0  0  0  0
   -0.3800   -2.5600    0.0000 C   0  0  0  0  0  0  0  0  0  0  0  0
   -1.6800   -1.8100    0.0000 C   0  0  0  0  0  0  0  0  0  0  0  0
   -2.9800   -2.5600    0.0000 C   0  0  0  0  0  0  0  0  0  0  0  0
   -2.9800   -4.0600    0.0000 O   0  0  0  0  0  0  0  0  0  0  0  0
   -4.2800   -1.8100    0.0000 C   0  0  0  0  0  0  0  0  0  0  0  0
   -5.5789   -2.5602    0.0000 O   0  0  0  0  0  0  0  0  0  0  0  0
   -4.2800   -0.3100    0.0000 C   0  0  0  0  0  0  0  0  0  0  0  0
   -2.9800    0.4400    0.0000 C   0  0  0  0  0  0  0  0  0  0  0  0
   -1.6800   -0.3100    0.0000 C   0  0  2  0  0  0  0  0  0  0  0  0
   -1.6800    1.1900    0.0000 C   0  0  0  0  0  0  0  0  0  0  0  0
    2.2200    0.4400    0.0000 C   0  0  2  0  0  0  0  0  0  0  0  0
    3.6500   -0.0200    0.0000 C   0  0  0  0  0  0  0  0  0  0  0  0
    4.5300    1.1900    0.0000 C   0  0  0  0  0  0  0  0  0  0  0  0
    3.6500    2.4000    0.0000 C   0  0  0  0  0  0  0  0  0  0  0  0
    4.1153    3.8260    0.0000 O   0  0  0  0  0  0  0  0  0  0  0  0
  2  1  1  1  0  0  0
  2  3  1  0  0  0  0
  3  4  1  0  0  0  0
  5  4  1  1  0  0  0
  5  6  1  0  0  0  0
  6  7  1  6  0  0  0
  7  8  1  0  0  0  0
  8  9  1  0  0  0  0
  9 10  2  0  0  0  0
 10 11  1  0  0  0  0
 10 12  1  0  0  0  0
 12 13  2  0  0  0  0
 12 14  1  0  0  0  0
 14 15  1  0  0  0  0
 15 16  1  0  0  0  0
  9 16  1  0  0  0  0
  5 16  1  0  0  0  0
 16 17  1  1  0  0  0
  6 18  1  0  0  0  0
  2 18  1  0  0  0  0
 18 19  1  1  0  0  0
 19 20  1  0  0  0  0
 20 21  1  0  0  0  0
  2 21  1  0  0  0  0
 21 22  2  0  0  0  0
M  END
> <InChI>
InChI=1S/C19H26O3/c1-18-10-8-15(20)17(22)14(18)4-3-11-12-5-6-16(21)19(12,2)9-7-13(11)18/h11-13,22H,3-10H2,1-2H3/t11-,12-,13-,18+,19-/m0/s1

> <InChIKey>
OSVMTWJCGUFAOD-KZQROQTASA-N

> <SMILES>
C[C@]12CC[C@H]3[C@@H](CCC4=C(O)C(=O)CC[C@@]43C)[C@@H]1CCC2=O

> <Synonyms>


> <PUBCHEM_CID>


> <Molecular_formula>
C19H26O3

> <Major_Isotope_Mass>
302.18819469199997

> <ALogP>
2.7307

> <Lipinski_Violations>
0

> <Insecticide_Likeness_Violations>
0

> <Post_Em_Herbicide_Likeness_Violations>
0

> <Metabolite_ID>
BTM00002

> <Reaction>
Dehydrogenation of 17-beta-hydroxysteroid

> <Reaction_ID>
BTMR0370

> <Enzyme(s)>
EC 1.1.1.239

> <Biosystem>
HUMAN

> <Precursor_ID>


> <Precursor_SMILES>
C[C@]12CC[C@H]3[C@@H](CCC4=C(O)C(=O)CC[C@@]43C)[C@@H]1CC[C@@H]2O

> <Precursor_InChI>
InChI=1S/C19H28O3/c1-18-10-8-15(20)17(22)14(18)4-3-11-12-5-6-16(21)19(12,2)9-7-13(11)18/h11-13,16,21-22H,3-10H2,1-2H3/t11-,12-,13-,16-,18+,19-/m0/s1

> <Precursor_InChIKey>
BQOIJSIMMIDHMO-FBPKJDBXSA-N

> <Precursor_ALogP>


> <Precursor_Major_Isotope_Mass>
304.2038

$$$$
BTM00003
  CDK     09122622072D

 21 24  0  0  1  0  0  0  0  0999 V2000
    2.3787    3.4316    0.0000 C   0  0  0  0  0  0  0  0  0  0  0  0
    2.2200    1.9400    0.0000 C   0  0  2  0  0  0  0  0  0  0  0  0
    0.9200    2.6900    0.0000 C   0  0  0  0  0  0  0  0  0  0  0  0
   -0.3800    1.9400    0.0000 C   0  0  0  0  0  0  0  0  0  0  0  0
   -0.3800    0.4400    0.0000 C   0  0  1  0  0  0  0  0  0  0  0  0
    0.9200   -0.3100    0.0000 C   0  0  1  0  0  0  0  0  0  0  0  0
    0.9200   -1.8100    0.0000 C   0  0  0  0  0  0  0  0  0  0  0  0
   -0.3800   -2.5600    0.0000 C   0  0  0  0  0  0  0  0  0  0  0  0
   -1.6800   -1.8100    0.0000 C   0  0  0  0  0  0  0  0  0  0  0  0
   -2.9800   -2.5600    0.0000 C   0  0  0  0  0  0  0  0  0  0  0  0
   -2.9800   -4.0600    0.0000 O   0  0  0  0  0  0  0  0  0  0  0  0
   -4.2800   -1.8100    0.0000 C   0  0  0  0  0  0  0  0  0  0  0  0
   -5.5789   -2.5602    0.0000 O   0  0  0  0  0  0  0  0  0  0  0  0
   -4.2800   -0.3100    0.0000 C   0  0  0  0  0  0  0  0  0  0  0  0
   -2.9800    0.4400    0.0000 C   0  0  0  0  0  0  0  0  0  0  0  0
   -1.6800   -0.3100    0.0000 C   0  0  0  0  0  0  0  0  0  0  0  0
    2.2200    0.4400    0.0000 C   0  0  2  0  0  0  0  0  0  0  0  0
    3.6500   -0.0200    0.0000 C   0  0  0  0  0  0  0  0  0  0  0  0
    4.5300    1.1900    0.0000 C   0  0  0  0  0  0  0  0  0  0  0  0
    3.6500    2.4000    0.0000 C   0  0  2  0  0  0  0  0  0  0  0  0
    4.1153    3.8260    0.0000 O   0  0  0  0  0  0  0  0  0  0  0  0
  2  1  1  1  0  0  0
  2  3  1  0  0  0  0
  3  4  1  0  0  0  0
  5  4  1  1  0  0  0
  5  6  1  0  0  0  0
  6  7  1  6  0  0  0
  7  8  1  0  0  0  0
  8  9  1  0  0  0  0
  9 10  2  0  0  0  0
 10 11  1  0  0  0  0
 10 12  1  0  0  0  0
 12 13  1  0  0  0  0
 12 14  2  0  0  0  0
 14 15  1  0  0  0  0
 15 16  2  0  0  0  0
  9 16  1  0  0  0  0
  5 16  1  0  0  0  0
  6 17  1  0  0  0  0
  2 17  1  0  0  0  0
 17 18  1  1  0  0  0
 18 19  1  0  0  0  0
 19 20  1  0  0  0  0
  2 20  1  0  0  0  0
 20 21  1  1  0  0  0
M  END
> <InChI>
InChI=1S/C18H24O3/c1-18-9-8-11-10-4-6-15(19)17(21)13(10)3-2-12(11)14(18)5-7-16(18)20/h4,6,11-12,14,16,19-21H,2-3,5,7-9H2,1H3/t11-,12-,14+,16+,18+/m1/s1

> <InChIKey>
QOZFCKXEVSGWGS-ZHIYBZGJSA-N

> <SMILES>
C[C@]12CC[C@H]3[C@@H](CCC4=C(O)C(O)=CC=C43)[C@@H]1CC[C@@H]2O

> <Synonyms>


> <PUBCHEM_CID>


> <Molecular_formula>
C18H24O3

> <Major_Isotope_Mass>
288.17254462799997

> <ALogP>
3.5453000000000015

> <Lipinski_Violations>
0

> <Insecticide_Likeness_Violations>
1

> <Post_Em_Herbicide_Likeness_Violations>
1

> <Metabolite_ID>
BTM00003

> <Reaction>
Aromatization of androgen

> <Reaction_ID>
BTMR0397

> <Enzyme(s)>
EC 1.14.14.14

> <Biosystem>
HUMAN

> <Precursor_ID>


> <Precursor_SMILES>
C[C@]12CC[C@H]3[C@@H](CCC4=C(O)C(=O)CC[C@@]43C)[C@@H]1CC[C@@H]2O

> <Precursor_InChI>
InChI=1S/C19H28O3/c1-18-10-8-15(20)17(22)14(18)4-3-11-12-5-6-16(21)19(12,2)9-7-13(11)18/h11-13,16,21-22H,3-10H2,1-2H3/t11-,12-,13-,16-,18+,19-/m0/s1

> <Precursor_InChIKey>
BQOIJSIMMIDHMO-FBPKJDBXSA-N

> <Precursor_ALogP>


> <Precursor_Major_Isotope_Mass>
304.2038

$$$$
BTM00004
  CDK     09122622072D

  2  1  0  0  0  0  0  0  0  0999 V2000
    0.0000    0.0000    0.0000 C   0  0  0  0  0  0  0  0  0  0  0  0
    1.5000    0.0000    0.0000 O   0  0  0  0  0  0  0  0  0  0  0  0
  2  1  1  0  0  0  0
M  END
> <InChI>
InChI=1S/CH4O/c1-2/h2H,1H3

> <InChIKey>
OKKJLVBELUTLKV-UHFFFAOYSA-N

> <SMILES>
CO

> <Synonyms>


> <PUBCHEM_CID>


> <Molecular_formula>
CH4O

> <Major_Isotope_Mass>
32.026214748

> <ALogP>
-0.3580000000000002

> <Lipinski_Violations>
0

> <Insecticide_Likeness_Violations>
0

> <Post_Em_Herbicide_Likeness_Violations>
0

> <Metabolite_ID>
BTM00004

> <Reaction>
Aromatization of androgen

> <Reaction_ID>
BTMR0397

> <Enzyme(s)>
EC 1.14.14.14

> <Biosystem>
HUMAN

> <Precursor_ID>


> <Precursor_SMILES>
C[C@]12CC[C@H]3[C@@H](CCC4=C(O)C(=O)CC[C@@]43C)[C@@H]1CC[C@@H]2O

> <Precursor_InChI>
InChI=1S/C19H28O3/c1-18-10-8-15(20)17(22)14(18)4-3-11-12-5-6-16(21)19(12,2)9-7-13(11)18/h11-13,16,21-22H,3-10H2,1-2H3/t11-,12-,13-,16-,18+,19-/m0/s1

> <Precursor_InChIKey>
BQOIJSIMMIDHMO-FBPKJDBXSA-N

> <Precursor_ALogP>


> <Precursor_Major_Isotope_Mass>
304.2038

$$$$
BTM00005
  CDK     09122622072D

 23 26  0  0  1  0  0  0  0  0999 V2000
    2.3787    3.4316    0.0000 C   0  0  0  0  0  0  0  0  0  0  0  0
    2.2200    1.9400    0.0000 C   0  0  2  0  0  0  0  0  0  0  0  0
    0.9200    2.6900    0.0000 C   0  0  0  0  0  0  0  0  0  0  0  0
   -0.3800    1.9400    0.0000 C   0  0  0  0  0  0  0  0  0  0  0  0
   -0.3800    0.4400    0.0000 C   0  0  1  0  0  0  0  0  0  0  0  0
    0.9200   -0.3100    0.0000 C   0  0  1  0  0  0  0  0  0  0  0  0
    0.9200   -1.8100    0.0000 C   0  0  0  0  0  0  0  0  0  0  0  0
   -0.3800   -2.5600    0.0000 C   0  0  0  0  0  0  0  0  0  0  0  0
   -1.6800   -1.8100    0.0000 C   0  0  0  0  0  0  0  0  0  0  0  0
   -2.9800   -2.5600    0.0000 C   0  0  0  0  0  0  0  0  0  0  0  0
   -2.9800   -4.0600    0.0000 O   0  0  0  0  0  0  0  0  0  0  0  0
   -4.2800   -1.8100    0.0000 C   0  0  0  0  0  0  0  0  0  0  0  0
   -5.5789   -2.5602    0.0000 O   0  0  0  0  0  0  0  0  0  0  0  0
   -4.2800   -0.3100    0.0000 C   0  0  0  0  0  0  0  0  0  0  0  0
   -2.9800    0.4400    0.0000 C   0  0  0  0  0  0  0  0  0  0  0  0
   -1.6800   -0.3100    0.0000 C   0  0  2  0  0  0  0  0  0  0  0  0
   -1.6800    1.1900    0.0000 C   0  0  0  0  0  0  0  0  0  0  0  0
    2.2200    0.4400    0.0000 C   0  0  2  0  0  0  0  0  0  0  0  0
    3.6500   -0.0200    0.0000 C   0  0  0  0  0  0  0  0  0  0  0  0
    4.5300    1.1900    0.0000 C   0  0  0  0  0  0  0  0  0  0  0  0
    3.6500    2.4000    0.0000 C   0  0  2  0  0  0  0  0  0  0  0  0
    4.1153    3.8260    0.0000 O   0  0  0  0  0  0  0  0  0  0  0  0
   -1.6789    2.6902    0.0000 O   0  0  0  0  0  0  0  0  0  0  0  0
  2  1  1  1  0  0  0
  2  3  1  0  0  0  0
  3  4  1  0  0  0  0
  5  4  1  1  0  0  0
  5  6  1  0  0  0  0
  6  7  1  6  0  0  0
  7  8  1  0  0  0  0
  8  9  1  0  0  0  0
  9 10  2  0  0  0  0
 10 11  1  0  0  0  0
 10 12  1  0  0  0  0
 12 13  2  0  0  0  0
 12 14  1  0  0  0  0
 14 15  1  0  0  0  0
 15 16  1  0  0  0  0
  9 16  1  0  0  0  0
  5 16  1  0  0  0  0
 16 17  1  1  0  0  0
  6 18  1  0  0  0  0
  2 18  1  0  0  0  0
 18 19  1  1  0  0  0
 19 20  1  0  0  0  0
 20 21  1  0  0  0  0
  2 21  1  0  0  0  0
 21 22  1  1  0  0  0
 23  4  1  0  0  0  0
M  END
> <InChI>
InChI=1S/C19H28O4/c1-18-8-7-13(20)17(23)12(18)4-3-10-11-5-6-15(22)19(11,2)9-14(21)16(10)18/h10-11,14-16,21-23H,3-9H2,1-2H3/t10-,11-,14?,15-,16+,18-,19-/m0/s1

> <InChIKey>
PZVUPPKUNFKHBG-SIYKRKDHSA-N

> <SMILES>
C[C@]12CC([C@H]3[C@@H](CCC4=C(O)C(=O)CC[C@@]43C)[C@@H]1CC[C@@H]2O)O

> <Synonyms>


> <PUBCHEM_CID>


> <Molecular_formula>
C19H28O4

> <Major_Isotope_Mass>
320.198759376

> <ALogP>
1.6007999999999982

> <Lipinski_Violations>
0

> <Insecticide_Likeness_Violations>
1

> <Post_Em_Herbicide_Likeness_Violations>
1

> <Metabolite_ID>
BTM00005

> <Reaction>
11-beta-Hydroxylation of sterol

> <Reaction_ID>
BTMR0406

> <Enzyme(s)>
EC 1.14.15.4

> <Biosystem>
HUMAN

> <Precursor_ID>


> <Precursor_SMILES>
C[C@]12CC[C@H]3[C@@H](CCC4=C(O)C(=O)CC[C@@]43C)[C@@H]1CC[C@@H]2O

> <Precursor_InChI>
InChI=1S/C19H28O3/c1-18-10-8-15(20)17(22)14(18)4-3-11-12-5-6-16(21)19(12,2)9-7-13(11)18/h11-13,16,21-22H,3-10H2,1-2H3/t11-,12-,13-,16-,18+,19-/m0/s1

> <Precursor_InChIKey>
BQOIJSIMMIDHMO-FBPKJDBXSA-N

> <Precursor_ALogP>


> <Precursor_Major_Isotope_Mass>
304.2038

$$$$
BTM00006
  CDK     09122622072D

 34 38  0  0  1  0  0  0  0  0999 V2000
    2.3787    3.4316    0.0000 C   0  0  0  0  0  0  0  0  0  0  0  0
    2.2200    1.9400    0.0000 C   0  0  2  0  0  0  0  0  0  0  0  0
    0.9200    2.6900    0.0000 C   0  0  0  0  0  0  0  0  0  0  0  0
   -0.3800    1.9400    0.0000 C   0  0  0  0  0  0  0  0  0  0  0  0
   -0.3800    0.4400    0.0000 C   0  0  1  0  0  0  0  0  0  0  0  0
    0.9200   -0.3100    0.0000 C   0  0  1  0  0  0  0  0  0  0  0  0
    0.9200   -1.8100    0.0000 C   0  0  0  0  0  0  0  0  0  0  0  0
   -0.3800   -2.5600    0.0000 C   0  0  0  0  0  0  0  0  0  0  0  0
   -1.6800   -1.8100    0.0000 C   0  0  0  0  0  0  0  0  0  0  0  0
   -2.9800   -2.5600    0.0000 C   0  0  0  0  0  0  0  0  0  0  0  0
   -2.9800   -4.0600    0.0000 O   0  0  0  0  0  0  0  0  0  0  0  0
   -4.2800   -1.8100    0.0000 C   0  0  0  0  0  0  0  0  0  0  0  0
   -5.5789   -2.5602    0.0000 O   0  0  0  0  0  0  0  0  0  0  0  0
   -4.2800   -0.3100    0.0000 C   0  0  0  0  0  0  0  0  0  0  0  0
   -2.9800    0.4400    0.0000 C   0  0  0  0  0  0  0  0  0  0  0  0
   -1.6800   -0.3100    0.0000 C   0  0  2  0  0  0  0  0  0  0  0  0
   -1.6800    1.1900    0.0000 C   0  0  0  0  0  0  0  0  0  0  0  0
    2.2200    0.4400    0.0000 C   0  0  2  0  0  0  0  0  0  0  0  0
    3.6500   -0.0200    0.0000 C   0  0  0  0  0  0  0  0  0  0  0  0
    4.5300    1.1900    0.0000 C   0  0  0  0  0  0  0  0  0  0  0  0
    3.6500    2.4000    0.0000 C   0  0  2  0  0  0  0  0  0  0  0  0
    4.1153    3.8260    0.0000 O   0  0  0  0  0  0  0  0  0  0  0  0
    5.0521    6.6710    0.0000 O   0  0  0  0  0  0  0  0  0  0  0  0
    6.0499    5.5510    0.0000 C   0  0  0  0  0  0  0  0  0  0  0  0
    7.5416    5.8589    0.0000 C   0  0  0  0  0  0  0  0  0  0  0  0
    8.0166    7.2817    0.0000 O   0  0  0  0  0  0  0  0  0  0  0  0
    8.5379    4.7297    0.0000 C   0  0  0  0  0  0  0  0  0  0  0  0
   10.0074    5.0307    0.0000 O   0  0  0  0  0  0  0  0  0  0  0  0
    8.0708    3.3148    0.0000 C   0  0  0  0  0  0  0  0  0  0  0  0
    6.6013    3.0101    0.0000 O   0  0  0  0  0  0  0  0  0  0  0  0
    5.5829    4.1361    0.0000 C   0  0  0  0  0  0  0  0  0  0  0  0
    9.0691    2.1952    0.0000 C   0  0  0  0  0  0  0  0  0  0  0  0
   10.5378    2.5000    0.0000 O   0  0  0  0  0  0  0  0  0  0  0  0
    8.5987    0.7709    0.0000 O   0  0  0  0  0  0  0  0  0  0  0  0
  2  1  1  1  0  0  0
  2  3  1  0  0  0  0
  3  4  1  0  0  0  0
  5  4  1  1  0  0  0
  5  6  1  0  0  0  0
  6  7  1  6  0  0  0
  7  8  1  0  0  0  0
  8  9  1  0  0  0  0
  9 10  2  0  0  0  0
 10 11  1  0  0  0  0
 10 12  1  0  0  0  0
 12 13  2  0  0  0  0
 12 14  1  0  0  0  0
 14 15  1  0  0  0  0
 15 16  1  0  0  0  0
  9 16  1  0  0  0  0
  5 16  1  0  0  0  0
 16 17  1  1  0  0  0
  6 18  1  0  0  0  0
  2 18  1  0  0  0  0
 18 19  1  1  0  0  0
 19 20  1  0  0  0  0
 20 21  1  0  0  0  0
  2 21  1  0  0  0  0
 21 22  1  1  0  0  0
 23 24  1  0  0  0  0
 24 25  1  0  0  0  0
 25 26  1  0  0  0  0
 25 27  1  0  0  0  0
 27 28  1  0  0  0  0
 27 29  1  0  0  0  0
 29 30  1  0  0  0  0
 30 31  1  0  0  0  0
 24 31  1  0  0  0  0
 31 22  1  0  0  0  0
 29 32  1  0  0  0  0
 32 33  1  0  0  0  0
 32 34  2  0  0  0  0
M  END
> <InChI>
InChI=1S/C25H36O9/c1-24-10-8-15(26)17(27)14(24)4-3-11-12-5-6-16(25(12,2)9-7-13(11)24)33-23-20(30)18(28)19(29)21(34-23)22(31)32/h11-13,16,18-21,23,27-30H,3-10H2,1-2H3,(H,31,32)/t11-,12-,13-,16-,18?,19?,20?,21?,23?,24+,25-/m0/s1

> <InChIKey>
SQEAPZGPYCJAHB-DGDBWQDZSA-N

> <SMILES>
C[C@]12CC[C@H]3[C@@H](CCC4=C(O)C(=O)CC[C@@]43C)[C@@H]1CC[C@@H]2OC5OC(C(C(C5O)O)O)C(O)=O

> <Synonyms>


> <PUBCHEM_CID>


> <Molecular_formula>
C25H36O9

> <Major_Isotope_Mass>
480.235932732

> <ALogP>
1.2321999999999973

> <Lipinski_Violations>
0

> <Insecticide_Likeness_Violations>
1

> <Post_Em_Herbicide_Likeness_Violations>
1

> <Metabolite_ID>
BTM00006

> <Reaction>
17-OH-Glucuronidation of sterol

> <Reaction_ID>
BTMR0163

> <Enzyme(s)>
EC 2.4.1.17

> <Biosystem>
HUMAN

> <Precursor_ID>


> <Precursor_SMILES>
C[C@]12CC[C@H]3[C@@H](CCC4=C(O)C(=O)CC[C@@]43C)[C@@H]1CC[C@@H]2O

> <Precursor_InChI>
InChI=1S/C19H28O3/c1-18-10-8-15(20)17(22)14(18)4-3-11-12-5-6-16(21)19(12,2)9-7-13(11)18/h11-13,16,21-22H,3-10H2,1-2H3/t11-,12-,13-,16-,18+,19-/m0/s1

> <Precursor_InChIKey>
BQOIJSIMMIDHMO-FBPKJDBXSA-N

> <Precursor_ALogP>


> <Precursor_Major_Isotope_Mass>
304.2038

$$$$
