BTM00001
  CDK     09122622432D

 26 30  0  0  1  0  0  0  0  0999 V2000
    2.3787    3.4316    0.0000 C   0  0  0  0  0  0  0  0  0  0  0  0
    2.2200    1.9400    0.0000 C   0  0  2  0  0  0  0  0  0  0  0  0
    0.9200    2.6900    0.0000 C   0  0  0  0  0  0  0  0  0  0  0  0
   -0.3800    1.9400    0.0000 C   0  0  0  0  0  0  0  0  0  0  0  0
   -0.3800    0.4400    0.0000 C   0  0  1  0  0  0  0  0  0  0  0  0
    0.9200   -0.3100    0.0000 C   0  0  1  0  0  0  0  0  0  0  0  0
    0.9200   -1.8100    0.0000 C   0  0  0  0  0  0  0  0  0  0  0  0
   -0.3800   -2.5600    0.0000 C   0  0  0  0  0  0  0  0  0  0  0  0
   -1.6800   -1.8100    0.0000 C   0  0  0  0  0  0  0  0  0  0  0  0
   -2.9800   -2.5600    0.0000 C   0  0  0  0  0  0  0  0  0  0  0  0
   -4.2800   -1.8100    0.0000 C   0  0  0  0  0  0  0  0  0  0  0  0
   -5.5789   -2.5602    0.0000 O   0  0  0  0  0  0  0  0  0  0  0  0
   -4.2800   -0.3100    0.0000 C   0  0  0  0  0  0  0  0  0  0  0  0
   -2.9800    0.4400    0.0000 C   0  0  0  0  0  0  0  0  0  0  0  0
   -1.6800   -0.3100    0.0000 C   0  0  2  0  0  0  0  0  0  0  0  0
   -1.6800    1.1900    0.0000 C   0  0  0  0  0  0  0  0  0  0  0  0
    2.2200    0.4400    0.0000 C   0  0  2  0  0  0  0  0  0  0  0  0
    3.6500   -0.0200    0.0000 C   0  0  0  0  0  0  0  0  0  0  0  0
    4.5300    1.1900    0.0000 C   0  0  0  0  0  0  0  0  0  0  0  0
    3.6500    2.4000    0.0000 C   0  0  2  0  0  0  0  0  0  0  0  0
    4.1153    3.8260    0.0000 O   0  0  0  0  0  0  0  0  0  0  0  0
    5.5829    4.1361    0.0000 C   0  0  0  0  0  0  0  0  0  0  0  0
    6.1916    5.4900    0.0000 C   0  0  0  0  0  0  0  0  0  0  0  0
    7.6877    5.3478    0.0000 C   0  0  0  0  0  0  0  0  0  0  0  0
    7.9789    3.8764    0.0000 C   0  0  0  0  0  0  0  0  0  0  0  0
    6.6988    3.1337    0.0000 C   0  0  0  0  0  0  0  0  0  0  0  0
  2  1  1  1  0  0  0
  2  3  1  0  0  0  0
  3  4  1  0  0  0  0
  5  4  1  1  0  0  0
  5  6  1  0  0  0  0
  6  7  1  6  0  0  0
  7  8  1  0  0  0  0
  8  9  1  0  0  0  0
  9 10  2  0  0  0  0
 10 11  1  0  0  0  0
 11 12  1  0  0  0  0
 11 13  1  0  0  0  0
 13 14  2  0  0  0  0
 14 15  1  0  0  0  0
  9 15  1  0  0  0  0
  5 15  1  0  0  0  0
 15 16  1  1  0  0  0
  6 17  1  0  0  0  0
  2 17  1  0  0  0  0
 17 18  1  1  0  0  0
 18 19  1  0  0  0  0
 19 20  1  0  0  0  0
  2 20  1  0  0  0  0
 20 21  1  1  0  0  0
 21 22  1  0  0  0  0
 22 23  2  0  0  0  0
 23 24  1  0  0  0  0
 24 25  1  0  0  0  0
 25 26  1  0  0  0  0
 22 26  1  0  0  0  0
M  END
> <InChI>
InChI=1S/C24H34O2/c1-23-13-11-17(25)15-16(23)7-8-19-20-9-10-22(26-18-5-3-4-6-18)24(20,2)14-12-21(19)23/h5,11,13,15,17,19-22,25H,3-4,6-10,12,14H2,1-2H3/t17?,19-,20-,21-,22-,23-,24-/m0/s1

> <InChIKey>
JAFVUVGECPNWPD-IMJDKSHQSA-N

> <SMILES>
C[C@]12CC[C@H]3[C@@H](CCC4=CC(O)C=C[C@@]43C)[C@@H]1CC[C@@H]2OC5=CCCC5

> <Synonyms>


> <PUBCHEM_CID>


> <Molecular_formula>
C24H34O2

> <Major_Isotope_Mass>
354.255880328

> <ALogP>
4.623999999999995

> <Lipinski_Violations>
1

> <Insecticide_Likeness_Violations>
0

> <Post_Em_Herbicide_Likeness_Violations>
0

> <Metabolite_ID>
BTM00001

> <Reaction>
Reduction of carbonyl

> <Reaction_ID>
BTMR0368

> <Enzyme(s)>
EC 1.1.1.184

> <Biosystem>
HUMAN

> <Precursor_ID>


> <Precursor_SMILES>
C[C@]12CC[C@H]3[C@@H](CCC4=CC(=O)C=C[C@@]43C)[C@@H]1CC[C@@H]2OC5=CCCC5

> <Precursor_InChI>
InChI=1S/C24H32O2/c1-23-13-11-17(25)15-16(23)7-8-19-20-9-10-22(26-18-5-3-4-6-18)24(20,2)14-12-21(19)23/h5,11,13,15,19-22H,3-4,6-10,12,14H2,1-2H3/t19-,20-,21-,22-,23-,24-/m0/s1

> <Precursor_InChIKey>
IUVKMZGDUIUOCP-BTNSXGMBSA-N

> <Precursor_ALogP>


> <Precursor_Major_Isotope_Mass>
352.2402

$$$$
BTM00002
  CDK     09122622432D

 27 31  0  0  1  0  0  0  0  0999 V2000
    2.3787    3.4316    0.0000 C   0  0  0  0  0  0  0  0  0  0  0  0
    2.2200    1.9400    0.0000 C   0  0  2  0  0  0  0  0  0  0  0  0
    0.9200    2.6900    0.0000 C   0  0  0  0  0  0  0  0  0  0  0  0
   -0.3800    1.9400    0.0000 C   0  0  0  0  0  0  0  0  0  0  0  0
   -0.3800    0.4400    0.0000 C   0  0  1  0  0  0  0  0  0  0  0  0
    0.9200   -0.3100    0.0000 C   0  0  1  0  0  0  0  0  0  0  0  0
    0.9200   -1.8100    0.0000 C   0  0  0  0  0  0  0  0  0  0  0  0
   -0.3800   -2.5600    0.0000 C   0  0  0  0  0  0  0  0  0  0  0  0
   -1.6800   -1.8100    0.0000 C   0  0  0  0  0  0  0  0  0  0  0  0
   -2.9800   -2.5600    0.0000 C   0  0  0  0  0  0  0  0  0  0  0  0
   -4.2800   -1.8100    0.0000 C   0  0  0  0  0  0  0  0  0  0  0  0
   -5.5789   -2.5602    0.0000 O   0  0  0  0  0  0  0  0  0  0  0  0
   -4.2800   -0.3100    0.0000 C   0  0  0  0  0  0  0  0  0  0  0  0
   -2.9800    0.4400    0.0000 C   0  0  0  0  0  0  0  0  0  0  0  0
   -1.6800   -0.3100    0.0000 C   0  0  2  0  0  0  0  0  0  0  0  0
   -1.6800    1.1900    0.0000 C   0  0  0  0  0  0  0  0  0  0  0  0
    2.2200    0.4400    0.0000 C   0  0  2  0  0  0  0  0  0  0  0  0
    3.6500   -0.0200    0.0000 C   0  0  0  0  0  0  0  0  0  0  0  0
    4.5300    1.1900    0.0000 C   0  0  0  0  0  0  0  0  0  0  0  0
    3.6500    2.4000    0.0000 C   0  0  2  0  0  0  0  0  0  0  0  0
    4.1153    3.8260    0.0000 O   0  0  0  0  0  0  0  0  0  0  0  0
    5.5829    4.1361    0.0000 C   0  0  0  0  0  0  0  0  0  0  0  0
    6.1916    5.4900    0.0000 C   0  0  0  0  0  0  0  0  0  0  0  0
    7.6877    5.3478    0.0000 C   0  0  0  0  0  0  0  0  0  0  0  0
    7.9789    3.8764    0.0000 C   0  0  0  0  0  0  0  0  0  0  0  0
    6.6988    3.1337    0.0000 C   0  0  0  0  0  0  0  0  0  0  0  0
   -1.6789    2.6902    0.0000 O   0  0  0  0  0  0  0  0  0  0  0  0
  2  1  1  1  0  0  0
  2  3  1  0  0  0  0
  3  4  1  0  0  0  0
  5  4  1  1  0  0  0
  5  6  1  0  0  0  0
  6  7  1  6  0  0  0
  7  8  1  0  0  0  0
  8  9  1  0  0  0  0
  9 10  2  0  0  0  0
 10 11  1  0  0  0  0
 11 12  2  0  0  0  0
 11 13  1  0  0  0  0
 13 14  2  0  0  0  0
 14 15  1  0  0  0  0
  9 15  1  0  0  0  0
  5 15  1  0  0  0  0
 15 16  1  1  0  0  0
  6 17  1  0  0  0  0
  2 17  1  0  0  0  0
 17 18  1  1  0  0  0
 18 19  1  0  0  0  0
 19 20  1  0  0  0  0
  2 20  1  0  0  0  0
 20 21  1  1  0  0  0
 21 22  1  0  0  0  0
 22 23  2  0  0  0  0
 23 24  1  0  0  0  0
 24 25  1  0  0  0  0
 25 26  1  0  0  0  0
 22 26  1  0  0  0  0
 27  4  1  0  0  0  0
M  END
> <InChI>
InChI=1S/C24H32O3/c1-23-12-11-16(25)13-15(23)7-8-18-19-9-10-21(27-17-5-3-4-6-17)24(19,2)14-20(26)22(18)23/h5,11-13,18-22,26H,3-4,6-10,14H2,1-2H3/t18-,19-,20?,21-,22+,23-,24-/m0/s1

> <InChIKey>
GLDJVWJQEATLLC-OYAJYZEFSA-N

> <SMILES>
C[C@]12CC([C@H]3[C@@H](CCC4=CC(=O)C=C[C@@]43C)[C@@H]1CC[C@@H]2OC5=CCCC5)O

> <Synonyms>


> <PUBCHEM_CID>


> <Molecular_formula>
C24H32O3

> <Major_Isotope_Mass>
368.23514488399996

> <ALogP>
3.7014999999999945

> <Lipinski_Violations>
0

> <Insecticide_Likeness_Violations>
0

> <Post_Em_Herbicide_Likeness_Violations>
0

> <Metabolite_ID>
BTM00002

> <Reaction>
11-beta-Hydroxylation of sterol

> <Reaction_ID>
BTMR0406

> <Enzyme(s)>
EC 1.14.15.4

> <Biosystem>
HUMAN

> <Precursor_ID>


> <Precursor_SMILES>
C[C@]12CC[C@H]3[C@@H](CCC4=CC(=O)C=C[C@@]43C)[C@@H]1CC[C@@H]2OC5=CCCC5

> <Precursor_InChI>
InChI=1S/C24H32O2/c1-23-13-11-17(25)15-16(23)7-8-19-20-9-10-22(26-18-5-3-4-6-18)24(20,2)14-12-21(19)23/h5,11,13,15,19-22H,3-4,6-10,12,14H2,1-2H3/t19-,20-,21-,22-,23-,24-/m0/s1

> <Precursor_InChIKey>
IUVKMZGDUIUOCP-BTNSXGMBSA-N

> <Precursor_ALogP>


> <Precursor_Major_Isotope_Mass>
352.2402

$$$$
BTM00003
  CDK     09122622432D

 27 31  0  0  1  0  0  0  0  0999 V2000
    2.1507    3.0803    0.0000 C   0  0  0  0  0  0  0  0  0  0  0  0
    1.9800    1.5900    0.0000 C   0  0  2  0  0  0  0  0  0  0  0  0
    0.7100    2.3500    0.0000 C   0  0  0  0  0  0  0  0  0  0  0  0
   -0.6200    1.5900    0.0000 C   0  0  0  0  0  0  0  0  0  0  0  0
   -0.6200    0.1200    0.0000 C   0  0  1  0  0  0  0  0  0  0  0  0
    0.7100   -0.6000    0.0000 C   0  0  1  0  0  0  0  0  0  0  0  0
    0.7100   -2.1200    0.0000 C   0  0  0  0  0  0  0  0  0  0  0  0
   -0.6200   -2.8700    0.0000 C   0  0  0  0  0  0  0  0  0  0  0  0
   -1.9200   -2.1200    0.0000 C   0  0  0  0  0  0  0  0  0  0  0  0
   -3.2100   -2.8700    0.0000 C   0  0  0  0  0  0  0  0  0  0  0  0
   -4.5200   -2.1200    0.0000 C   0  0  0  0  0  0  0  0  0  0  0  0
   -5.8177   -2.8724    0.0000 O   0  0  0  0  0  0  0  0  0  0  0  0
   -4.5200   -0.6000    0.0000 C   0  0  0  0  0  0  0  0  0  0  0  0
   -3.2100    0.1200    0.0000 C   0  0  0  0  0  0  0  0  0  0  0  0
   -1.9200   -0.6000    0.0000 C   0  0  2  0  0  0  0  0  0  0  0  0
   -1.9175    0.9000    0.0000 C   0  0  0  0  0  0  0  0  0  0  0  0
    1.9800    0.1200    0.0000 C   0  0  2  0  0  0  0  0  0  0  0  0
    3.4100   -0.3500    0.0000 C   0  0  0  0  0  0  0  0  0  0  0  0
    4.2600    0.8400    0.0000 C   0  0  0  0  0  0  0  0  0  0  0  0
    3.4100    2.0500    0.0000 C   0  0  2  0  0  0  0  0  0  0  0  0
    3.8870    3.4721    0.0000 O   0  0  0  0  0  0  0  0  0  0  0  0
    5.3571    3.7702    0.0000 C   0  0  0  0  0  0  0  0  0  0  0  0
    5.9768    5.1191    0.0000 C   0  0  0  0  0  0  0  0  0  0  0  0
    7.4717    4.9646    0.0000 C   0  0  0  0  0  0  0  0  0  0  0  0
    7.7509    3.4908    0.0000 C   0  0  0  0  0  0  0  0  0  0  0  0
    6.4647    2.7586    0.0000 C   0  0  0  0  0  0  0  0  0  0  0  0
    5.7600    0.8341    0.0000 O   0  0  0  0  0  0  0  0  0  0  0  0
  2  1  1  1  0  0  0
  2  3  1  0  0  0  0
  3  4  1  0  0  0  0
  5  4  1  1  0  0  0
  5  6  1  0  0  0  0
  6  7  1  6  0  0  0
  7  8  1  0  0  0  0
  8  9  1  0  0  0  0
  9 10  2  0  0  0  0
 10 11  1  0  0  0  0
 11 12  2  0  0  0  0
 11 13  1  0  0  0  0
 13 14  2  0  0  0  0
 14 15  1  0  0  0  0
  9 15  1  0  0  0  0
  5 15  1  0  0  0  0
 15 16  1  1  0  0  0
  6 17  1  0  0  0  0
  2 17  1  0  0  0  0
 17 18  1  1  0  0  0
 18 19  1  0  0  0  0
 19 20  1  0  0  0  0
  2 20  1  0  0  0  0
 20 21  1  1  0  0  0
 21 22  1  0  0  0  0
 22 23  2  0  0  0  0
 23 24  1  0  0  0  0
 24 25  1  0  0  0  0
 25 26  1  0  0  0  0
 22 26  1  0  0  0  0
 27 19  1  0  0  0  0
M  END
> <InChI>
InChI=1S/C24H32O3/c1-23-11-9-16(25)13-15(23)7-8-18-19(23)10-12-24(2)20(18)14-21(26)22(24)27-17-5-3-4-6-17/h5,9,11,13,18-22,26H,3-4,6-8,10,12,14H2,1-2H3/t18-,19+,20+,21?,22+,23+,24+/m1/s1

> <InChIKey>
JKPIKQFCCULKSP-BPOYVELMSA-N

> <SMILES>
C[C@]12CC[C@H]3[C@@H](CCC4=CC(=O)C=C[C@@]43C)[C@@H]1CC([C@@H]2OC5=CCCC5)O

> <Synonyms>


> <PUBCHEM_CID>


> <Molecular_formula>
C24H32O3

> <Major_Isotope_Mass>
368.23514488399996

> <ALogP>
3.903999999999996

> <Lipinski_Violations>
0

> <Insecticide_Likeness_Violations>
0

> <Post_Em_Herbicide_Likeness_Violations>
0

> <Metabolite_ID>
BTM00003

> <Reaction>
16-Hydroxylation of sterol

> <Reaction_ID>
BTMR0407

> <Enzyme(s)>
CYP1A2
CYP2A6
CYP2B6
CYP2C8
CYP2C9
CYP2C19
CYP2D6
CYP2E1
CYP3A4

> <Biosystem>
HUMAN

> <Precursor_ID>


> <Precursor_SMILES>
C[C@]12CC[C@H]3[C@@H](CCC4=CC(=O)C=C[C@@]43C)[C@@H]1CC[C@@H]2OC5=CCCC5

> <Precursor_InChI>
InChI=1S/C24H32O2/c1-23-13-11-17(25)15-16(23)7-8-19-20-9-10-22(26-18-5-3-4-6-18)24(20,2)14-12-21(19)23/h5,11,13,15,19-22H,3-4,6-10,12,14H2,1-2H3/t19-,20-,21-,22-,23-,24-/m0/s1

> <Precursor_InChIKey>
IUVKMZGDUIUOCP-BTNSXGMBSA-N

> <Precursor_ALogP>


> <Precursor_Major_Isotope_Mass>
352.2402

$$$$
BTM00004
  CDK     09122622432D

 27 31  0  0  1  0  0  0  0  0999 V2000
    2.3787    3.4316    0.0000 C   0  0  0  0  0  0  0  0  0  0  0  0
    2.2200    1.9400    0.0000 C   0  0  2  0  0  0  0  0  0  0  0  0
    0.9200    2.6900    0.0000 C   0  0  0  0  0  0  0  0  0  0  0  0
   -0.3800    1.9400    0.0000 C   0  0  0  0  0  0  0  0  0  0  0  0
   -0.3800    0.4400    0.0000 C   0  0  1  0  0  0  0  0  0  0  0  0
    0.9200   -0.3100    0.0000 C   0  0  1  0  0  0  0  0  0  0  0  0
    0.9200   -1.8100    0.0000 C   0  0  0  0  0  0  0  0  0  0  0  0
   -0.3800   -2.5600    0.0000 C   0  0  0  0  0  0  0  0  0  0  0  0
   -1.6800   -1.8100    0.0000 C   0  0  0  0  0  0  0  0  0  0  0  0
   -2.9800   -2.5600    0.0000 C   0  0  0  0  0  0  0  0  0  0  0  0
   -4.2800   -1.8100    0.0000 C   0  0  0  0  0  0  0  0  0  0  0  0
   -5.5789   -2.5602    0.0000 O   0  0  0  0  0  0  0  0  0  0  0  0
   -4.2800   -0.3100    0.0000 C   0  0  0  0  0  0  0  0  0  0  0  0
   -2.9800    0.4400    0.0000 C   0  0  0  0  0  0  0  0  0  0  0  0
   -1.6800   -0.3100    0.0000 C   0  0  2  0  0  0  0  0  0  0  0  0
   -1.6800    1.1900    0.0000 C   0  0  0  0  0  0  0  0  0  0  0  0
    2.2200    0.4400    0.0000 C   0  0  2  0  0  0  0  0  0  0  0  0
    3.6500   -0.0200    0.0000 C   0  0  0  0  0  0  0  0  0  0  0  0
    4.5300    1.1900    0.0000 C   0  0  0  0  0  0  0  0  0  0  0  0
    3.6500    2.4000    0.0000 C   0  0  2  0  0  0  0  0  0  0  0  0
    4.1153    3.8260    0.0000 O   0  0  0  0  0  0  0  0  0  0  0  0
    5.5829    4.1361    0.0000 C   0  0  0  0  0  0  0  0  0  0  0  0
    6.1916    5.4900    0.0000 C   0  0  0  0  0  0  0  0  0  0  0  0
    7.6877    5.3478    0.0000 C   0  0  0  0  0  0  0  0  0  0  0  0
    7.9789    3.8764    0.0000 C   0  0  0  0  0  0  0  0  0  0  0  0
    6.6988    3.1337    0.0000 C   0  0  0  0  0  0  0  0  0  0  0  0
   -5.5789    0.4402    0.0000 O   0  0  0  0  0  0  0  0  0  0  0  0
  2  1  1  1  0  0  0
  2  3  1  0  0  0  0
  3  4  1  0  0  0  0
  5  4  1  1  0  0  0
  5  6  1  0  0  0  0
  6  7  1  6  0  0  0
  7  8  1  0  0  0  0
  8  9  1  0  0  0  0
  9 10  2  0  0  0  0
 10 11  1  0  0  0  0
 11 12  2  0  0  0  0
 11 13  1  0  0  0  0
 13 14  2  0  0  0  0
 14 15  1  0  0  0  0
  9 15  1  0  0  0  0
  5 15  1  0  0  0  0
 15 16  1  1  0  0  0
  6 17  1  0  0  0  0
  2 17  1  0  0  0  0
 17 18  1  1  0  0  0
 18 19  1  0  0  0  0
 19 20  1  0  0  0  0
  2 20  1  0  0  0  0
 20 21  1  1  0  0  0
 21 22  1  0  0  0  0
 22 23  2  0  0  0  0
 23 24  1  0  0  0  0
 24 25  1  0  0  0  0
 25 26  1  0  0  0  0
 22 26  1  0  0  0  0
 27 13  1  0  0  0  0
M  END
> <InChI>
InChI=1S/C24H32O3/c1-23-12-11-19-17(8-7-15-13-20(25)21(26)14-24(15,19)2)18(23)9-10-22(23)27-16-5-3-4-6-16/h5,13-14,17-19,22,26H,3-4,6-12H2,1-2H3/t17-,18-,19-,22-,23-,24-/m0/s1

> <InChIKey>
OTZCCWNFCDMKGP-RWLNTESRSA-N

> <SMILES>
C[C@]12CC[C@H]3[C@@H](CCC4=CC(=O)C(=C[C@@]43C)O)[C@@H]1CC[C@@H]2OC5=CCCC5

> <Synonyms>


> <PUBCHEM_CID>


> <Molecular_formula>
C24H32O3

> <Major_Isotope_Mass>
368.23514488399996

> <ALogP>
4.3078

> <Lipinski_Violations>
1

> <Insecticide_Likeness_Violations>
0

> <Post_Em_Herbicide_Likeness_Violations>
0

> <Metabolite_ID>
BTM00004

> <Reaction>
2-Hydroxylation of sterol

> <Reaction_ID>
BTMR0398

> <Enzyme(s)>
CYP1A2
CYP2C19
CYP3A4

> <Biosystem>
HUMAN

> <Precursor_ID>


> <Precursor_SMILES>
C[C@]12CC[C@H]3[C@@H](CCC4=CC(=O)C=C[C@@]43C)[C@@H]1CC[C@@H]2OC5=CCCC5

> <Precursor_InChI>
InChI=1S/C24H32O2/c1-23-13-11-17(25)15-16(23)7-8-19-20-9-10-22(26-18-5-3-4-6-18)24(20,2)14-12-21(19)23/h5,11,13,15,19-22H,3-4,6-10,12,14H2,1-2H3/t19-,20-,21-,22-,23-,24-/m0/s1

> <Precursor_InChIKey>
IUVKMZGDUIUOCP-BTNSXGMBSA-N

> <Precursor_ALogP>


> <Precursor_Major_Isotope_Mass>
352.2402

$$$$
BTM00005
  CDK     09122622432D

 27 31  0  0  1  0  0  0  0  0999 V2000
    2.3787    3.4316    0.0000 C   0  0  0  0  0  0  0  0  0  0  0  0
    2.2200    1.9400    0.0000 C   0  0  2  0  0  0  0  0  0  0  0  0
    0.9200    2.6900    0.0000 C   0  0  0  0  0  0  0  0  0  0  0  0
   -0.3800    1.9400    0.0000 C   0  0  0  0  0  0  0  0  0  0  0  0
   -0.3800    0.4400    0.0000 C   0  0  1  0  0  0  0  0  0  0  0  0
    0.9200   -0.3100    0.0000 C   0  0  1  0  0  0  0  0  0  0  0  0
    0.9200   -1.8100    0.0000 C   0  0  0  0  0  0  0  0  0  0  0  0
   -0.3800   -2.5600    0.0000 C   0  0  0  0  0  0  0  0  0  0  0  0
   -1.6800   -1.8100    0.0000 C   0  0  0  0  0  0  0  0  0  0  0  0
   -2.9800   -2.5600    0.0000 C   0  0  0  0  0  0  0  0  0  0  0  0
   -4.2800   -1.8100    0.0000 C   0  0  0  0  0  0  0  0  0  0  0  0
   -5.5789   -2.5602    0.0000 O   0  0  0  0  0  0  0  0  0  0  0  0
   -4.2800   -0.3100    0.0000 C   0  0  0  0  0  0  0  0  0  0  0  0
   -2.9800    0.4400    0.0000 C   0  0  0  0  0  0  0  0  0  0  0  0
   -1.6800   -0.3100    0.0000 C   0  0  2  0  0  0  0  0  0  0  0  0
   -1.6800    1.1900    0.0000 C   0  0  0  0  0  0  0  0  0  0  0  0
    2.2200    0.4400    0.0000 C   0  0  2  0  0  0  0  0  0  0  0  0
    3.6500   -0.0200    0.0000 C   0  0  0  0  0  0  0  0  0  0  0  0
    4.5300    1.1900    0.0000 C   0  0  0  0  0  0  0  0  0  0  0  0
    3.6500    2.4000    0.0000 C   0  0  2  0  0  0  0  0  0  0  0  0
    4.1153    3.8260    0.0000 O   0  0  0  0  0  0  0  0  0  0  0  0
    5.5829    4.1361    0.0000 C   0  0  0  0  0  0  0  0  0  0  0  0
    6.1916    5.4900    0.0000 C   0  0  0  0  0  0  0  0  0  0  0  0
    7.6877    5.3478    0.0000 C   0  0  0  0  0  0  0  0  0  0  0  0
    7.9789    3.8764    0.0000 C   0  0  0  0  0  0  0  0  0  0  0  0
    6.6988    3.1337    0.0000 C   0  0  0  0  0  0  0  0  0  0  0  0
   -2.9800   -4.0600    0.0000 O   0  0  0  0  0  0  0  0  0  0  0  0
  2  1  1  1  0  0  0
  2  3  1  0  0  0  0
  3  4  1  0  0  0  0
  5  4  1  1  0  0  0
  5  6  1  0  0  0  0
  6  7  1  6  0  0  0
  7  8  1  0  0  0  0
  8  9  1  0  0  0  0
  9 10  2  0  0  0  0
 10 11  1  0  0  0  0
 11 12  2  0  0  0  0
 11 13  1  0  0  0  0
 13 14  2  0  0  0  0
 14 15  1  0  0  0  0
  9 15  1  0  0  0  0
  5 15  1  0  0  0  0
 15 16  1  1  0  0  0
  6 17  1  0  0  0  0
  2 17  1  0  0  0  0
 17 18  1  1  0  0  0
 18 19  1  0  0  0  0
 19 20  1  0  0  0  0
  2 20  1  0  0  0  0
 20 21  1  1  0  0  0
 21 22  1  0  0  0  0
 22 23  2  0  0  0  0
 23 24  1  0  0  0  0
 24 25  1  0  0  0  0
 25 26  1  0  0  0  0
 22 26  1  0  0  0  0
 27 10  1  0  0  0  0
M  END
> <InChI>
InChI=1S/C24H32O3/c1-23-14-12-20(25)22(26)19(23)8-7-16-17-9-10-21(27-15-5-3-4-6-15)24(17,2)13-11-18(16)23/h5,12,14,16-18,21,26H,3-4,6-11,13H2,1-2H3/t16-,17-,18-,21-,23+,24-/m0/s1

> <InChIKey>
VPIAWBBMUNNLOA-IJBOUDDQSA-N

> <SMILES>
C[C@]12CC[C@H]3[C@@H](CCC4=C(C(=O)C=C[C@@]43C)O)[C@@H]1CC[C@@H]2OC5=CCCC5

> <Synonyms>


> <PUBCHEM_CID>


> <Molecular_formula>
C24H32O3

> <Major_Isotope_Mass>
368.23514488399996

> <ALogP>
4.3078

> <Lipinski_Violations>
1

> <Insecticide_Likeness_Violations>
0

> <Post_Em_Herbicide_Likeness_Violations>
0

> <Metabolite_ID>
BTM00005

> <Reaction>
4-Hydroxylation of sterol

> <Reaction_ID>
BTMR0400

> <Enzyme(s)>
CYP1A2
CYP3A4

> <Biosystem>
HUMAN

> <Precursor_ID>


> <Precursor_SMILES>
C[C@]12CC[C@H]3[C@@H](CCC4=CC(=O)C=C[C@@]43C)[C@@H]1CC[C@@H]2OC5=CCCC5

> <Precursor_InChI>
InChI=1S/C24H32O2/c1-23-13-11-17(25)15-16(23)7-8-19-20-9-10-22(26-18-5-3-4-6-18)24(20,2)14-12-21(19)23/h5,11,13,15,19-22H,3-4,6-10,12,14H2,1-2H3/t19-,20-,21-,22-,23-,24-/m0/s1

> <Precursor_InChIKey>
IUVKMZGDUIUOCP-BTNSXGMBSA-N

> <Precursor_ALogP>


> <Precursor_Major_Isotope_Mass>
352.2402

$$$$
BTM00006
  CDK     09122622432D

 27 32  0  0  1  0  0  0  0  0999 V2000
   -4.0748   -2.4332    0.0000 C   0  0  0  0  0  0  0  0  0  0  0  0
   -3.7506   -3.8977    0.0000 C   0  0  2  0  0  0  0  0  0  0  0  0
   -5.2213   -3.5989    0.0000 C   0  0  0  0  0  0  0  0  0  0  0  0
   -6.2162   -4.7227    0.0000 C   0  0  0  0  0  0  0  0  0  0  0  0
   -5.7403   -6.1452    0.0000 C   0  0  1  0  0  0  0  0  0  0  0  0
   -4.2695   -6.4439    0.0000 C   0  0  1  0  0  0  0  0  0  0  0  0
   -3.7936   -7.8664    0.0000 C   0  0  0  0  0  0  0  0  0  0  0  0
   -4.7885   -8.9901    0.0000 C   0  0  0  0  0  0  0  0  0  0  0  0
   -6.2593   -8.6914    0.0000 C   0  0  0  0  0  0  0  0  0  0  0  0
   -7.2541   -9.8151    0.0000 C   0  0  0  0  0  0  0  0  0  0  0  0
   -8.7249   -9.5163    0.0000 C   0  0  0  0  0  0  0  0  0  0  0  0
   -9.7187  -10.6399    0.0000 O   0  0  0  0  0  0  0  0  0  0  0  0
   -9.2008   -8.0938    0.0000 C   0  0  0  0  0  0  0  0  0  0  0  0
   -8.2060   -6.9701    0.0000 C   0  0  0  0  0  0  0  0  0  0  0  0
   -6.7352   -7.2689    0.0000 C   0  0  2  0  0  0  0  0  0  0  0  0
   -7.2111   -5.8464    0.0000 C   0  0  0  0  0  0  0  0  0  0  0  0
   -3.2746   -5.3202    0.0000 C   0  0  2  0  0  0  0  0  0  0  0  0
   -1.7821   -5.3059    0.0000 C   0  0  0  0  0  0  0  0  0  0  0  0
   -1.3314   -3.8792    0.0000 C   0  0  0  0  0  0  0  0  0  0  0  0
   -2.5499   -3.0110    0.0000 C   0  0  2  0  0  0  0  0  0  0  0  0
   -2.5626   -1.5110    0.0000 O   0  0  0  0  0  0  0  0  0  0  0  0
   -1.2700   -0.7500    0.0000 C   0  0  0  0  0  0  0  0  0  0  0  0
   -0.0100    1.5000    0.0000 C   0  0  0  0  0  0  0  0  0  0  0  0
    1.2900    0.7600    0.0000 C   0  0  0  0  0  0  0  0  0  0  0  0
    1.3000   -0.7400    0.0000 C   0  0  0  0  0  0  0  0  0  0  0  0
    0.0000   -1.5000    0.0000 C   0  0  0  0  0  0  0  0  0  0  0  0
   -1.3100    0.7400    0.0000 O   0  0  0  0  0  0  0  0  0  0  0  0
  2  1  1  1  0  0  0
  2  3  1  0  0  0  0
  3  4  1  0  0  0  0
  5  4  1  1  0  0  0
  5  6  1  0  0  0  0
  6  7  1  6  0  0  0
  7  8  1  0  0  0  0
  8  9  1  0  0  0  0
  9 10  2  0  0  0  0
 10 11  1  0  0  0  0
 11 12  2  0  0  0  0
 11 13  1  0  0  0  0
 13 14  2  0  0  0  0
 14 15  1  0  0  0  0
  9 15  1  0  0  0  0
  5 15  1  0  0  0  0
 15 16  1  1  0  0  0
  6 17  1  0  0  0  0
  2 17  1  0  0  0  0
 17 18  1  1  0  0  0
 18 19  1  0  0  0  0
 19 20  1  0  0  0  0
  2 20  1  0  0  0  0
 20 21  1  1  0  0  0
 21 22  1  0  0  0  0
 22 23  1  0  0  0  0
 23 24  1  0  0  0  0
 24 25  1  0  0  0  0
 25 26  1  0  0  0  0
 22 26  1  0  0  0  0
 22 27  1  0  0  0  0
 27 23  1  0  0  0  0
M  END
> <InChI>
InChI=1S/C24H32O3/c1-22-12-9-16(25)14-15(22)5-6-17-18-7-8-20(23(18,2)13-10-19(17)22)26-24-11-3-4-21(24)27-24/h9,12,14,17-21H,3-8,10-11,13H2,1-2H3/t17-,18-,19-,20-,21?,22-,23-,24?/m0/s1

> <InChIKey>
PJXNAGWQHFUDLN-FSEPQUAQSA-N

> <SMILES>
C[C@]12CC[C@H]3[C@@H](CCC4=CC(=O)C=C[C@@]43C)[C@@H]1CC[C@@H]2OC56C(CCC5)O6

> <Synonyms>


> <PUBCHEM_CID>


> <Molecular_formula>
C24H32O3

> <Major_Isotope_Mass>
368.23514488399996

> <ALogP>
4.271599999999997

> <Lipinski_Violations>
1

> <Insecticide_Likeness_Violations>
0

> <Post_Em_Herbicide_Likeness_Violations>
0

> <Metabolite_ID>
BTM00006

> <Reaction>
Epoxidation of vinyl ether

> <Reaction_ID>
BTMR1026

> <Enzyme(s)>
CYP1A2
CYP3A4

> <Biosystem>
HUMAN

> <Precursor_ID>


> <Precursor_SMILES>
C[C@]12CC[C@H]3[C@@H](CCC4=CC(=O)C=C[C@@]43C)[C@@H]1CC[C@@H]2OC5=CCCC5

> <Precursor_InChI>
InChI=1S/C24H32O2/c1-23-13-11-17(25)15-16(23)7-8-19-20-9-10-22(26-18-5-3-4-6-18)24(20,2)14-12-21(19)23/h5,11,13,15,19-22H,3-4,6-10,12,14H2,1-2H3/t19-,20-,21-,22-,23-,24-/m0/s1

> <Precursor_InChIKey>
IUVKMZGDUIUOCP-BTNSXGMBSA-N

> <Precursor_ALogP>


> <Precursor_Major_Isotope_Mass>
352.2402

$$$$
BTM00007
  CDK     09122622432D

 27 32  0  0  1  0  0  0  0  0999 V2000
    2.6129    3.3722    0.0000 C   0  0  0  0  0  0  0  0  0  0  0  0
    2.4600    1.8800    0.0000 C   0  0  2  0  0  0  0  0  0  0  0  0
    1.1600    2.6200    0.0000 C   0  0  0  0  0  0  0  0  0  0  0  0
   -0.1400    1.8800    0.0000 C   0  0  0  0  0  0  0  0  0  0  0  0
   -0.1400    0.3800    0.0000 C   0  0  1  0  0  0  0  0  0  0  0  0
    1.1600   -0.3800    0.0000 C   0  0  1  0  0  0  0  0  0  0  0  0
    1.1600   -1.8800    0.0000 C   0  0  0  0  0  0  0  0  0  0  0  0
   -0.1400   -2.6200    0.0000 C   0  0  0  0  0  0  0  0  0  0  0  0
   -1.4400   -1.8800    0.0000 C   0  0  0  0  0  0  0  0  0  0  0  0
   -2.7400   -2.6200    0.0000 C   0  0  0  0  0  0  0  0  0  0  0  0
   -4.0400   -1.8800    0.0000 C   0  0  0  0  0  0  0  0  0  0  0  0
   -5.3367   -2.6340    0.0000 O   0  0  0  0  0  0  0  0  0  0  0  0
   -4.0400   -0.3800    0.0000 C   0  0  0  0  0  0  0  0  0  0  0  0
   -2.7400    0.3800    0.0000 C   0  0  0  0  0  0  0  0  0  0  0  0
   -1.4400   -0.3800    0.0000 C   0  0  2  0  0  0  0  0  0  0  0  0
   -1.4400    1.1200    0.0000 C   0  0  0  0  0  0  0  0  0  0  0  0
    2.4600    0.3800    0.0000 C   0  0  2  0  0  0  0  0  0  0  0  0
    3.8800   -0.0900    0.0000 C   0  0  0  0  0  0  0  0  0  0  0  0
    4.7600    1.1200    0.0000 C   0  0  0  0  0  0  0  0  0  0  0  0
    3.8800    2.3400    0.0000 C   0  0  2  0  0  0  0  0  0  0  0  0
    4.3466    3.7656    0.0000 O   0  0  0  0  0  0  0  0  0  0  0  0
    5.8145    4.0743    0.0000 C   0  0  0  0  0  0  0  0  0  0  0  0
    6.4244    5.4277    0.0000 C   0  0  0  0  0  0  0  0  0  0  0  0
    7.9204    5.2841    0.0000 C   0  0  0  0  0  0  0  0  0  0  0  0
    8.2103    3.8123    0.0000 C   0  0  0  0  0  0  0  0  0  0  0  0
    6.9294    3.0708    0.0000 C   0  0  0  0  0  0  0  0  0  0  0  0
   -4.0400    1.1200    0.0000 O   0  0  0  0  0  0  0  0  0  0  0  0
  2  1  1  1  0  0  0
  2  3  1  0  0  0  0
  3  4  1  0  0  0  0
  5  4  1  1  0  0  0
  5  6  1  0  0  0  0
  6  7  1  6  0  0  0
  7  8  1  0  0  0  0
  8  9  1  0  0  0  0
  9 10  2  0  0  0  0
 10 11  1  0  0  0  0
 11 12  2  0  0  0  0
 11 13  1  0  0  0  0
 13 14  1  0  0  0  0
 14 15  1  0  0  0  0
  9 15  1  0  0  0  0
  5 15  1  0  0  0  0
 15 16  1  1  0  0  0
  6 17  1  0  0  0  0
  2 17  1  0  0  0  0
 17 18  1  1  0  0  0
 18 19  1  0  0  0  0
 19 20  1  0  0  0  0
  2 20  1  0  0  0  0
 20 21  1  1  0  0  0
 21 22  1  0  0  0  0
 22 23  2  0  0  0  0
 23 24  1  0  0  0  0
 24 25  1  0  0  0  0
 25 26  1  0  0  0  0
 22 26  1  0  0  0  0
 14 27  1  0  0  0  0
 27 13  1  0  0  0  0
M  END
> <InChI>
InChI=1S/C24H32O3/c1-23-12-11-18-16(17(23)9-10-20(23)26-15-5-3-4-6-15)8-7-14-13-19(25)21-22(27-21)24(14,18)2/h5,13,16-18,20-22H,3-4,6-12H2,1-2H3/t16-,17-,18-,20-,21?,22?,23-,24-/m0/s1

> <InChIKey>
TWOKZZOPZJIGTG-HFSRJFGBSA-N

> <SMILES>
C[C@]12CC[C@H]3[C@@H](CCC4=CC(=O)C5C([C@@]43C)O5)[C@@H]1CC[C@@H]2OC6=CCCC6

> <Synonyms>


> <PUBCHEM_CID>


> <Molecular_formula>
C24H32O3

> <Major_Isotope_Mass>
368.23514488399996

> <ALogP>
4.1481999999999974

> <Lipinski_Violations>
0

> <Insecticide_Likeness_Violations>
0

> <Post_Em_Herbicide_Likeness_Violations>
0

> <Metabolite_ID>
BTM00007

> <Reaction>
Epoxidation of alkene

> <Reaction_ID>
BTMR0110

> <Enzyme(s)>
CYP1A2
CYP2B6
CYP2B6
CYP2C8
CYP2C9
CYP2C19
CYP2D6
CYP2E1
CYP3A4

> <Biosystem>
HUMAN

> <Precursor_ID>


> <Precursor_SMILES>
C[C@]12CC[C@H]3[C@@H](CCC4=CC(=O)C=C[C@@]43C)[C@@H]1CC[C@@H]2OC5=CCCC5

> <Precursor_InChI>
InChI=1S/C24H32O2/c1-23-13-11-17(25)15-16(23)7-8-19-20-9-10-22(26-18-5-3-4-6-18)24(20,2)14-12-21(19)23/h5,11,13,15,19-22H,3-4,6-10,12,14H2,1-2H3/t19-,20-,21-,22-,23-,24-/m0/s1

> <Precursor_InChIKey>
IUVKMZGDUIUOCP-BTNSXGMBSA-N

> <Precursor_ALogP>


> <Precursor_Major_Isotope_Mass>
352.2402

$$$$
BTM00008
  CDK     09122622432D

 27 31  0  0  1  0  0  0  0  0999 V2000
    2.3787    3.4316    0.0000 C   0  0  0  0  0  0  0  0  0  0  0  0
    2.2200    1.9400    0.0000 C   0  0  2  0  0  0  0  0  0  0  0  0
    0.9200    2.6900    0.0000 C   0  0  0  0  0  0  0  0  0  0  0  0
   -0.3800    1.9400    0.0000 C   0  0  0  0  0  0  0  0  0  0  0  0
   -0.3800    0.4400    0.0000 C   0  0  1  0  0  0  0  0  0  0  0  0
    0.9200   -0.3100    0.0000 C   0  0  1  0  0  0  0  0  0  0  0  0
    0.9200   -1.8100    0.0000 C   0  0  0  0  0  0  0  0  0  0  0  0
   -0.3800   -2.5600    0.0000 C   0  0  0  0  0  0  0  0  0  0  0  0
   -1.6800   -1.8100    0.0000 C   0  0  0  0  0  0  0  0  0  0  0  0
   -2.9800   -2.5600    0.0000 C   0  0  0  0  0  0  0  0  0  0  0  0
   -4.2800   -1.8100    0.0000 C   0  0  0  0  0  0  0  0  0  0  0  0
   -5.5789   -2.5602    0.0000 O   0  0  0  0  0  0  0  0  0  0  0  0
   -4.2800   -0.3100    0.0000 C   0  0  0  0  0  0  0  0  0  0  0  0
   -2.9800    0.4400    0.0000 C   0  0  0  0  0  0  0  0  0  0  0  0
   -1.6800   -0.3100    0.0000 C   0  0  2  0  0  0  0  0  0  0  0  0
   -1.6800    1.1900    0.0000 C   0  0  0  0  0  0  0  0  0  0  0  0
    2.2200    0.4400    0.0000 C   0  0  2  0  0  0  0  0  0  0  0  0
    3.6500   -0.0200    0.0000 C   0  0  0  0  0  0  0  0  0  0  0  0
    4.5300    1.1900    0.0000 C   0  0  0  0  0  0  0  0  0  0  0  0
    3.6500    2.4000    0.0000 C   0  0  2  0  0  0  0  0  0  0  0  0
    4.1153    3.8260    0.0000 O   0  0  0  0  0  0  0  0  0  0  0  0
    5.5829    4.1361    0.0000 C   0  0  0  0  0  0  0  0  0  0  0  0
    6.1916    5.4900    0.0000 C   0  0  0  0  0  0  0  0  0  0  0  0
    7.6877    5.3478    0.0000 C   0  0  0  0  0  0  0  0  0  0  0  0
    7.9789    3.8764    0.0000 C   0  0  0  0  0  0  0  0  0  0  0  0
    6.6988    3.1337    0.0000 C   0  0  0  0  0  0  0  0  0  0  0  0
   -0.3800   -4.0600    0.0000 O   0  0  0  0  0  0  0  0  0  0  0  0
  2  1  1  1  0  0  0
  2  3  1  0  0  0  0
  3  4  1  0  0  0  0
  5  4  1  1  0  0  0
  5  6  1  0  0  0  0
  6  7  1  6  0  0  0
  7  8  1  0  0  0  0
  8  9  1  0  0  0  0
  9 10  2  0  0  0  0
 10 11  1  0  0  0  0
 11 12  2  0  0  0  0
 11 13  1  0  0  0  0
 13 14  2  0  0  0  0
 14 15  1  0  0  0  0
  9 15  1  0  0  0  0
  5 15  1  0  0  0  0
 15 16  1  1  0  0  0
  6 17  1  0  0  0  0
  2 17  1  0  0  0  0
 17 18  1  1  0  0  0
 18 19  1  0  0  0  0
 19 20  1  0  0  0  0
  2 20  1  0  0  0  0
 20 21  1  1  0  0  0
 21 22  1  0  0  0  0
 22 23  2  0  0  0  0
 23 24  1  0  0  0  0
 24 25  1  0  0  0  0
 25 26  1  0  0  0  0
 22 26  1  0  0  0  0
 27  8  1  0  0  0  0
M  END
> <InChI>
InChI=1S/C24H32O3/c1-23-11-9-15(25)13-20(23)21(26)14-17-18-7-8-22(27-16-5-3-4-6-16)24(18,2)12-10-19(17)23/h5,9,11,13,17-19,21-22,26H,3-4,6-8,10,12,14H2,1-2H3/t17-,18-,19-,21?,22-,23+,24-/m0/s1

> <InChIKey>
SCGXXXWWKYYLDJ-XKGBMAETSA-N

> <SMILES>
C[C@]12CC[C@H]3[C@@H](CC(C4=CC(=O)C=C[C@@]43C)O)[C@@H]1CC[C@@H]2OC5=CCCC5

> <Synonyms>


> <PUBCHEM_CID>


> <Molecular_formula>
C24H32O3

> <Major_Isotope_Mass>
368.23514488399996

> <ALogP>
3.7689999999999944

> <Lipinski_Violations>
0

> <Insecticide_Likeness_Violations>
0

> <Post_Em_Herbicide_Likeness_Violations>
0

> <Metabolite_ID>
BTM00008

> <Reaction>
6-Hydroxylation of sterol

> <Reaction_ID>
BTMR0402

> <Enzyme(s)>
CYP2A6
CYP2B6
CYP2C8
CYP2C9
CYP2C19
CYP2D6
CYP3A4

> <Biosystem>
HUMAN

> <Precursor_ID>


> <Precursor_SMILES>
C[C@]12CC[C@H]3[C@@H](CCC4=CC(=O)C=C[C@@]43C)[C@@H]1CC[C@@H]2OC5=CCCC5

> <Precursor_InChI>
InChI=1S/C24H32O2/c1-23-13-11-17(25)15-16(23)7-8-19-20-9-10-22(26-18-5-3-4-6-18)24(20,2)14-12-21(19)23/h5,11,13,15,19-22H,3-4,6-10,12,14H2,1-2H3/t19-,20-,21-,22-,23-,24-/m0/s1

> <Precursor_InChIKey>
IUVKMZGDUIUOCP-BTNSXGMBSA-N

> <Precursor_ALogP>


> <Precursor_Major_Isotope_Mass>
352.2402

$$$$
BTM00009
  CDK     09122622432D

 27 31  0  0  1  0  0  0  0  0999 V2000
    2.4272    3.1517    0.0000 C   0  0  0  0  0  0  0  0  0  0  0  0
    2.2700    1.6600    0.0000 C   0  0  2  0  0  0  0  0  0  0  0  0
    0.9700    2.4100    0.0000 C   0  0  0  0  0  0  0  0  0  0  0  0
   -0.3300    1.6600    0.0000 C   0  0  0  0  0  0  0  0  0  0  0  0
   -0.3300    0.1600    0.0000 C   0  0  1  0  0  0  0  0  0  0  0  0
    0.9700   -0.5900    0.0000 C   0  0  1  0  0  0  0  0  0  0  0  0
    0.9700   -2.0900    0.0000 C   0  0  0  0  0  0  0  0  0  0  0  0
   -0.3300   -2.8400    0.0000 C   0  0  0  0  0  0  0  0  0  0  0  0
   -1.6300   -2.0900    0.0000 C   0  0  0  0  0  0  0  0  0  0  0  0
   -2.9300   -2.8400    0.0000 C   0  0  0  0  0  0  0  0  0  0  0  0
   -4.2300   -2.0900    0.0000 C   0  0  0  0  0  0  0  0  0  0  0  0
   -5.5289   -2.8402    0.0000 O   0  0  0  0  0  0  0  0  0  0  0  0
   -4.2300   -0.5900    0.0000 C   0  0  0  0  0  0  0  0  0  0  0  0
   -2.9300    0.1600    0.0000 C   0  0  0  0  0  0  0  0  0  0  0  0
   -1.6300   -0.5900    0.0000 C   0  0  2  0  0  0  0  0  0  0  0  0
   -1.6300    0.9100    0.0000 C   0  0  0  0  0  0  0  0  0  0  0  0
    2.2700    0.1600    0.0000 C   0  0  2  0  0  0  0  0  0  0  0  0
    3.6900   -0.3000    0.0000 C   0  0  0  0  0  0  0  0  0  0  0  0
    4.5700    0.9100    0.0000 C   0  0  0  0  0  0  0  0  0  0  0  0
    3.6900    2.1200    0.0000 C   0  0  2  0  0  0  0  0  0  0  0  0
    4.1538    3.5465    0.0000 O   0  0  0  0  0  0  0  0  0  0  0  0
    5.6211    3.8581    0.0000 C   0  0  0  0  0  0  0  0  0  0  0  0
    6.2284    5.2126    0.0000 C   0  0  0  0  0  0  0  0  0  0  0  0
    7.7246    5.0720    0.0000 C   0  0  0  0  0  0  0  0  0  0  0  0
    8.0174    3.6008    0.0000 C   0  0  0  0  0  0  0  0  0  0  0  0
    6.7380    2.8568    0.0000 C   0  0  0  0  0  0  0  0  0  0  0  0
    1.2139    4.0338    0.0000 O   0  0  0  0  0  0  0  0  0  0  0  0
  2  1  1  1  0  0  0
  2  3  1  0  0  0  0
  3  4  1  0  0  0  0
  5  4  1  1  0  0  0
  5  6  1  0  0  0  0
  6  7  1  6  0  0  0
  7  8  1  0  0  0  0
  8  9  1  0  0  0  0
  9 10  2  0  0  0  0
 10 11  1  0  0  0  0
 11 12  2  0  0  0  0
 11 13  1  0  0  0  0
 13 14  2  0  0  0  0
 14 15  1  0  0  0  0
  9 15  1  0  0  0  0
  5 15  1  0  0  0  0
 15 16  1  1  0  0  0
  6 17  1  0  0  0  0
  2 17  1  0  0  0  0
 17 18  1  1  0  0  0
 18 19  1  0  0  0  0
 19 20  1  0  0  0  0
  2 20  1  0  0  0  0
 20 21  1  1  0  0  0
 21 22  1  0  0  0  0
 22 23  2  0  0  0  0
 23 24  1  0  0  0  0
 24 25  1  0  0  0  0
 25 26  1  0  0  0  0
 22 26  1  0  0  0  0
 27  1  1  0  0  0  0
M  END
> <InChI>
InChI=1S/C24H32O3/c1-23-12-10-17(26)14-16(23)6-7-19-20(23)11-13-24(15-25)21(19)8-9-22(24)27-18-4-2-3-5-18/h4,10,12,14,19-22,25H,2-3,5-9,11,13,15H2,1H3/t19-,20+,21+,22+,23+,24-/m1/s1

> <InChIKey>
COGKBEZVOOHGJP-LFRJMLHLSA-N

> <SMILES>
C([C@]12CC[C@H]3[C@@H](CCC4=CC(=O)C=C[C@@]43C)[C@@H]1CC[C@@H]2OC5=CCCC5)O

> <Synonyms>


> <PUBCHEM_CID>


> <Molecular_formula>
C24H32O3

> <Major_Isotope_Mass>
368.23514488399996

> <ALogP>
3.780199999999995

> <Lipinski_Violations>
0

> <Insecticide_Likeness_Violations>
0

> <Post_Em_Herbicide_Likeness_Violations>
0

> <Metabolite_ID>
BTM00009

> <Reaction>
Hydroxylation of methyl carbon adjacent to aliphatic ring

> <Reaction_ID>
BTMR0054

> <Enzyme(s)>
CYP2B6
CYP2C8
CYP2C9
CYP2C19
CYP2D6
CYP3A4

> <Biosystem>
HUMAN

> <Precursor_ID>


> <Precursor_SMILES>
C[C@]12CC[C@H]3[C@@H](CCC4=CC(=O)C=C[C@@]43C)[C@@H]1CC[C@@H]2OC5=CCCC5

> <Precursor_InChI>
InChI=1S/C24H32O2/c1-23-13-11-17(25)15-16(23)7-8-19-20-9-10-22(26-18-5-3-4-6-18)24(20,2)14-12-21(19)23/h5,11,13,15,19-22H,3-4,6-10,12,14H2,1-2H3/t19-,20-,21-,22-,23-,24-/m0/s1

> <Precursor_InChIKey>
IUVKMZGDUIUOCP-BTNSXGMBSA-N

> <Precursor_ALogP>


> <Precursor_Major_Isotope_Mass>
352.2402

$$$$
BTM00010
  CDK     09122622432D

 27 31  0  0  1  0  0  0  0  0999 V2000
    2.4272    3.1517    0.0000 C   0  0  0  0  0  0  0  0  0  0  0  0
    2.2700    1.6600    0.0000 C   0  0  2  0  0  0  0  0  0  0  0  0
    0.9700    2.4100    0.0000 C   0  0  0  0  0  0  0  0  0  0  0  0
   -0.3300    1.6600    0.0000 C   0  0  0  0  0  0  0  0  0  0  0  0
   -0.3300    0.1600    0.0000 C   0  0  1  0  0  0  0  0  0  0  0  0
    0.9700   -0.5900    0.0000 C   0  0  1  0  0  0  0  0  0  0  0  0
    0.9700   -2.0900    0.0000 C   0  0  0  0  0  0  0  0  0  0  0  0
   -0.3300   -2.8400    0.0000 C   0  0  0  0  0  0  0  0  0  0  0  0
   -1.6300   -2.0900    0.0000 C   0  0  0  0  0  0  0  0  0  0  0  0
   -2.9300   -2.8400    0.0000 C   0  0  0  0  0  0  0  0  0  0  0  0
   -4.2300   -2.0900    0.0000 C   0  0  0  0  0  0  0  0  0  0  0  0
   -5.5289   -2.8402    0.0000 O   0  0  0  0  0  0  0  0  0  0  0  0
   -4.2300   -0.5900    0.0000 C   0  0  0  0  0  0  0  0  0  0  0  0
   -2.9300    0.1600    0.0000 C   0  0  0  0  0  0  0  0  0  0  0  0
   -1.6300   -0.5900    0.0000 C   0  0  2  0  0  0  0  0  0  0  0  0
   -1.6300    0.9100    0.0000 C   0  0  0  0  0  0  0  0  0  0  0  0
    2.2700    0.1600    0.0000 C   0  0  2  0  0  0  0  0  0  0  0  0
    3.6900   -0.3000    0.0000 C   0  0  0  0  0  0  0  0  0  0  0  0
    4.5700    0.9100    0.0000 C   0  0  0  0  0  0  0  0  0  0  0  0
    3.6900    2.1200    0.0000 C   0  0  2  0  0  0  0  0  0  0  0  0
    4.1538    3.5465    0.0000 O   0  0  0  0  0  0  0  0  0  0  0  0
    5.6211    3.8581    0.0000 C   0  0  0  0  0  0  0  0  0  0  0  0
    6.2284    5.2126    0.0000 C   0  0  0  0  0  0  0  0  0  0  0  0
    7.7246    5.0720    0.0000 C   0  0  0  0  0  0  0  0  0  0  0  0
    8.0174    3.6008    0.0000 C   0  0  0  0  0  0  0  0  0  0  0  0
    6.7380    2.8568    0.0000 C   0  0  0  0  0  0  0  0  0  0  0  0
   -2.9290    1.6600    0.0000 O   0  0  0  0  0  0  0  0  0  0  0  0
  2  1  1  1  0  0  0
  2  3  1  0  0  0  0
  3  4  1  0  0  0  0
  5  4  1  1  0  0  0
  5  6  1  0  0  0  0
  6  7  1  6  0  0  0
  7  8  1  0  0  0  0
  8  9  1  0  0  0  0
  9 10  2  0  0  0  0
 10 11  1  0  0  0  0
 11 12  2  0  0  0  0
 11 13  1  0  0  0  0
 13 14  2  0  0  0  0
 14 15  1  0  0  0  0
  9 15  1  0  0  0  0
  5 15  1  0  0  0  0
 15 16  1  1  0  0  0
  6 17  1  0  0  0  0
  2 17  1  0  0  0  0
 17 18  1  1  0  0  0
 18 19  1  0  0  0  0
 19 20  1  0  0  0  0
  2 20  1  0  0  0  0
 20 21  1  1  0  0  0
 21 22  1  0  0  0  0
 22 23  2  0  0  0  0
 23 24  1  0  0  0  0
 24 25  1  0  0  0  0
 25 26  1  0  0  0  0
 22 26  1  0  0  0  0
 27 16  1  0  0  0  0
M  END
> <InChI>
InChI=1S/C24H32O3/c1-23-12-11-21-19(7-6-16-14-17(26)10-13-24(16,21)15-25)20(23)8-9-22(23)27-18-4-2-3-5-18/h4,10,13-14,19-22,25H,2-3,5-9,11-12,15H2,1H3/t19-,20-,21-,22-,23-,24+/m0/s1

> <InChIKey>
GYZWQGAEJHHSEK-FOZARLDVSA-N

> <SMILES>
C[C@]12CC[C@H]3[C@@H](CCC4=CC(=O)C=C[C@@]43CO)[C@@H]1CC[C@@H]2OC5=CCCC5

> <Synonyms>


> <PUBCHEM_CID>


> <Molecular_formula>
C24H32O3

> <Major_Isotope_Mass>
368.23514488399996

> <ALogP>
3.780199999999995

> <Lipinski_Violations>
0

> <Insecticide_Likeness_Violations>
0

> <Post_Em_Herbicide_Likeness_Violations>
0

> <Metabolite_ID>
BTM00010

> <Reaction>
Hydroxylation of methyl carbon adjacent to aliphatic ring

> <Reaction_ID>
BTMR0054

> <Enzyme(s)>
CYP2B6
CYP2C8
CYP2C9
CYP2C19
CYP2D6
CYP3A4

> <Biosystem>
HUMAN

> <Precursor_ID>


> <Precursor_SMILES>
C[C@]12CC[C@H]3[C@@H](CCC4=CC(=O)C=C[C@@]43C)[C@@H]1CC[C@@H]2OC5=CCCC5

> <Precursor_InChI>
InChI=1S/C24H32O2/c1-23-13-11-17(25)15-16(23)7-8-19-20-9-10-22(26-18-5-3-4-6-18)24(20,2)14-12-21(19)23/h5,11,13,15,19-22H,3-4,6-10,12,14H2,1-2H3/t19-,20-,21-,22-,23-,24-/m0/s1

> <Precursor_InChIKey>
IUVKMZGDUIUOCP-BTNSXGMBSA-N

> <Precursor_ALogP>


> <Precursor_Major_Isotope_Mass>
352.2402

$$$$
BTM00011
  CDK     09122622432D

 26 30  0  0  1  0  0  0  0  0999 V2000
    2.3787    3.4316    0.0000 C   0  0  0  0  0  0  0  0  0  0  0  0
    2.2200    1.9400    0.0000 C   0  0  2  0  0  0  0  0  0  0  0  0
    0.9200    2.6900    0.0000 C   0  0  0  0  0  0  0  0  0  0  0  0
   -0.3800    1.9400    0.0000 C   0  0  0  0  0  0  0  0  0  0  0  0
   -0.3800    0.4400    0.0000 C   0  0  1  0  0  0  0  0  0  0  0  0
    0.9200   -0.3100    0.0000 C   0  0  1  0  0  0  0  0  0  0  0  0
    0.9200   -1.8100    0.0000 C   0  0  0  0  0  0  0  0  0  0  0  0
   -0.3800   -2.5600    0.0000 C   0  0  0  0  0  0  0  0  0  0  0  0
   -1.6800   -1.8100    0.0000 C   0  0  0  0  0  0  0  0  0  0  0  0
   -2.9800   -2.5600    0.0000 C   0  0  0  0  0  0  0  0  0  0  0  0
   -4.2800   -1.8100    0.0000 C   0  0  0  0  0  0  0  0  0  0  0  0
   -5.5789   -2.5602    0.0000 O   0  0  0  0  0  0  0  0  0  0  0  0
   -4.2800   -0.3100    0.0000 C   0  0  0  0  0  0  0  0  0  0  0  0
   -2.9800    0.4400    0.0000 C   0  0  0  0  0  0  0  0  0  0  0  0
   -1.6800   -0.3100    0.0000 C   0  0  2  0  0  0  0  0  0  0  0  0
   -1.6800    1.1900    0.0000 C   0  0  0  0  0  0  0  0  0  0  0  0
    2.2200    0.4400    0.0000 C   0  0  2  0  0  0  0  0  0  0  0  0
    3.6500   -0.0200    0.0000 C   0  0  0  0  0  0  0  0  0  0  0  0
    4.5300    1.1900    0.0000 C   0  0  0  0  0  0  0  0  0  0  0  0
    3.6500    2.4000    0.0000 C   0  0  2  0  0  0  0  0  0  0  0  0
    4.1153    3.8260    0.0000 O   0  0  0  0  0  0  0  0  0  0  0  0
    5.5829    4.1361    0.0000 C   0  0  0  0  0  0  0  0  0  0  0  0
    6.1916    5.4900    0.0000 C   0  0  0  0  0  0  0  0  0  0  0  0
    7.6877    5.3478    0.0000 C   0  0  0  0  0  0  0  0  0  0  0  0
    7.9789    3.8764    0.0000 C   0  0  0  0  0  0  0  0  0  0  0  0
    6.6988    3.1337    0.0000 C   0  0  0  0  0  0  0  0  0  0  0  0
  2  1  1  1  0  0  0
  2  3  1  0  0  0  0
  3  4  1  0  0  0  0
  5  4  1  1  0  0  0
  5  6  1  0  0  0  0
  6  7  1  6  0  0  0
  7  8  1  0  0  0  0
  8  9  1  0  0  0  0
  9 10  2  0  0  0  0
 10 11  1  0  0  0  0
 11 12  2  0  0  0  0
 11 13  1  0  0  0  0
 13 14  1  0  0  0  0
 14 15  1  0  0  0  0
  9 15  1  0  0  0  0
  5 15  1  0  0  0  0
 15 16  1  1  0  0  0
  6 17  1  0  0  0  0
  2 17  1  0  0  0  0
 17 18  1  1  0  0  0
 18 19  1  0  0  0  0
 19 20  1  0  0  0  0
  2 20  1  0  0  0  0
 20 21  1  1  0  0  0
 21 22  1  0  0  0  0
 22 23  2  0  0  0  0
 23 24  1  0  0  0  0
 24 25  1  0  0  0  0
 25 26  1  0  0  0  0
 22 26  1  0  0  0  0
M  END
> <InChI>
InChI=1S/C24H34O2/c1-23-13-11-17(25)15-16(23)7-8-19-20-9-10-22(26-18-5-3-4-6-18)24(20,2)14-12-21(19)23/h5,15,19-22H,3-4,6-14H2,1-2H3/t19-,20-,21-,22-,23-,24-/m0/s1

> <InChIKey>
JSUOQNRTVWLDFQ-BTNSXGMBSA-N

> <SMILES>
C[C@]12CC[C@H]3[C@@H](CCC4=CC(=O)CC[C@@]43C)[C@@H]1CC[C@@H]2OC5=CCCC5

> <Synonyms>


> <PUBCHEM_CID>


> <Molecular_formula>
C24H34O2

> <Major_Isotope_Mass>
354.255880328

> <ALogP>
4.894100000000001

> <Lipinski_Violations>
1

> <Insecticide_Likeness_Violations>
0

> <Post_Em_Herbicide_Likeness_Violations>
0

> <Metabolite_ID>
BTM00011

> <Reaction>
Reduction of alpha,beta-unsaturated carbon-carbon double bond adjacent to electron withdrawing group

> <Reaction_ID>
BTMR1209

> <Enzyme(s)>
EC 1.6.99.1

> <Biosystem>
GUTMICRO

> <Precursor_ID>


> <Precursor_SMILES>
C[C@]12CC[C@H]3[C@@H](CCC4=CC(=O)C=C[C@@]43C)[C@@H]1CC[C@@H]2OC5=CCCC5

> <Precursor_InChI>
InChI=1S/C24H32O2/c1-23-13-11-17(25)15-16(23)7-8-19-20-9-10-22(26-18-5-3-4-6-18)24(20,2)14-12-21(19)23/h5,11,13,15,19-22H,3-4,6-10,12,14H2,1-2H3/t19-,20-,21-,22-,23-,24-/m0/s1

> <Precursor_InChIKey>
IUVKMZGDUIUOCP-BTNSXGMBSA-N

> <Precursor_ALogP>


> <Precursor_Major_Isotope_Mass>
352.2402

$$$$
BTM00012
  CDK     09122622432D

 26 30  0  0  1  0  0  0  0  0999 V2000
    2.3787    3.4316    0.0000 C   0  0  0  0  0  0  0  0  0  0  0  0
    2.2200    1.9400    0.0000 C   0  0  2  0  0  0  0  0  0  0  0  0
    0.9200    2.6900    0.0000 C   0  0  0  0  0  0  0  0  0  0  0  0
   -0.3800    1.9400    0.0000 C   0  0  0  0  0  0  0  0  0  0  0  0
   -0.3800    0.4400    0.0000 C   0  0  1  0  0  0  0  0  0  0  0  0
    0.9200   -0.3100    0.0000 C   0  0  1  0  0  0  0  0  0  0  0  0
    0.9200   -1.8100    0.0000 C   0  0  0  0  0  0  0  0  0  0  0  0
   -0.3800   -2.5600    0.0000 C   0  0  0  0  0  0  0  0  0  0  0  0
   -1.6800   -1.8100    0.0000 C   0  0  0  0  0  0  0  0  0  0  0  0
   -2.9800   -2.5600    0.0000 C   0  0  0  0  0  0  0  0  0  0  0  0
   -4.2800   -1.8100    0.0000 C   0  0  0  0  0  0  0  0  0  0  0  0
   -5.5789   -2.5602    0.0000 O   0  0  0  0  0  0  0  0  0  0  0  0
   -4.2800   -0.3100    0.0000 C   0  0  0  0  0  0  0  0  0  0  0  0
   -2.9800    0.4400    0.0000 C   0  0  0  0  0  0  0  0  0  0  0  0
   -1.6800   -0.3100    0.0000 C   0  0  2  0  0  0  0  0  0  0  0  0
   -1.6800    1.1900    0.0000 C   0  0  0  0  0  0  0  0  0  0  0  0
    2.2200    0.4400    0.0000 C   0  0  2  0  0  0  0  0  0  0  0  0
    3.6500   -0.0200    0.0000 C   0  0  0  0  0  0  0  0  0  0  0  0
    4.5300    1.1900    0.0000 C   0  0  0  0  0  0  0  0  0  0  0  0
    3.6500    2.4000    0.0000 C   0  0  2  0  0  0  0  0  0  0  0  0
    4.1153    3.8260    0.0000 O   0  0  0  0  0  0  0  0  0  0  0  0
    5.5829    4.1361    0.0000 C   0  0  0  0  0  0  0  0  0  0  0  0
    6.1916    5.4900    0.0000 C   0  0  0  0  0  0  0  0  0  0  0  0
    7.6877    5.3478    0.0000 C   0  0  0  0  0  0  0  0  0  0  0  0
    7.9789    3.8764    0.0000 C   0  0  0  0  0  0  0  0  0  0  0  0
    6.6988    3.1337    0.0000 C   0  0  0  0  0  0  0  0  0  0  0  0
  2  1  1  1  0  0  0
  2  3  1  0  0  0  0
  3  4  1  0  0  0  0
  5  4  1  1  0  0  0
  5  6  1  0  0  0  0
  6  7  1  6  0  0  0
  7  8  1  0  0  0  0
  8  9  1  0  0  0  0
  9 10  1  0  0  0  0
 10 11  1  0  0  0  0
 11 12  2  0  0  0  0
 11 13  1  0  0  0  0
 13 14  2  0  0  0  0
 14 15  1  0  0  0  0
  9 15  1  0  0  0  0
  5 15  1  0  0  0  0
 15 16  1  1  0  0  0
  6 17  1  0  0  0  0
  2 17  1  0  0  0  0
 17 18  1  1  0  0  0
 18 19  1  0  0  0  0
 19 20  1  0  0  0  0
  2 20  1  0  0  0  0
 20 21  1  1  0  0  0
 21 22  1  0  0  0  0
 22 23  2  0  0  0  0
 23 24  1  0  0  0  0
 24 25  1  0  0  0  0
 25 26  1  0  0  0  0
 22 26  1  0  0  0  0
M  END
> <InChI>
InChI=1S/C24H34O2/c1-23-13-11-17(25)15-16(23)7-8-19-20-9-10-22(26-18-5-3-4-6-18)24(20,2)14-12-21(19)23/h5,11,13,16,19-22H,3-4,6-10,12,14-15H2,1-2H3/t16?,19-,20-,21-,22-,23-,24-/m0/s1

> <InChIKey>
OADZYJANDWFFNB-BLQAJSBSSA-N

> <SMILES>
C[C@]12CC[C@H]3[C@@H](CCC4CC(=O)C=C[C@@]43C)[C@@H]1CC[C@@H]2OC5=CCCC5

> <Synonyms>


> <PUBCHEM_CID>


> <Molecular_formula>
C24H34O2

> <Major_Isotope_Mass>
354.255880328

> <ALogP>
4.6995

> <Lipinski_Violations>
1

> <Insecticide_Likeness_Violations>
0

> <Post_Em_Herbicide_Likeness_Violations>
0

> <Metabolite_ID>
BTM00012

> <Reaction>
Reduction of alpha,beta-unsaturated carbon-carbon double bond adjacent to electron withdrawing group

> <Reaction_ID>
BTMR1209

> <Enzyme(s)>
EC 1.6.99.1

> <Biosystem>
GUTMICRO

> <Precursor_ID>


> <Precursor_SMILES>
C[C@]12CC[C@H]3[C@@H](CCC4=CC(=O)C=C[C@@]43C)[C@@H]1CC[C@@H]2OC5=CCCC5

> <Precursor_InChI>
InChI=1S/C24H32O2/c1-23-13-11-17(25)15-16(23)7-8-19-20-9-10-22(26-18-5-3-4-6-18)24(20,2)14-12-21(19)23/h5,11,13,15,19-22H,3-4,6-10,12,14H2,1-2H3/t19-,20-,21-,22-,23-,24-/m0/s1

> <Precursor_InChIKey>
IUVKMZGDUIUOCP-BTNSXGMBSA-N

> <Precursor_ALogP>


> <Precursor_Major_Isotope_Mass>
352.2402

$$$$
BTM00013
  CDK     09122622432D

 26 30  0  0  1  0  0  0  0  0999 V2000
    2.4272    3.1517    0.0000 C   0  0  0  0  0  0  0  0  0  0  0  0
    2.2700    1.6600    0.0000 C   0  0  2  0  0  0  0  0  0  0  0  0
    0.9700    2.4100    0.0000 C   0  0  0  0  0  0  0  0  0  0  0  0
   -0.3300    1.6600    0.0000 C   0  0  0  0  0  0  0  0  0  0  0  0
   -0.3300    0.1600    0.0000 C   0  0  1  0  0  0  0  0  0  0  0  0
    0.9700   -0.5900    0.0000 C   0  0  1  0  0  0  0  0  0  0  0  0
    0.9700   -2.0900    0.0000 C   0  0  0  0  0  0  0  0  0  0  0  0
   -0.3300   -2.8400    0.0000 C   0  0  0  0  0  0  0  0  0  0  0  0
   -1.6300   -2.0900    0.0000 C   0  0  0  0  0  0  0  0  0  0  0  0
   -2.9300   -2.8400    0.0000 C   0  0  0  0  0  0  0  0  0  0  0  0
   -4.2300   -2.0900    0.0000 C   0  0  0  0  0  0  0  0  0  0  0  0
   -5.5289   -2.8402    0.0000 O   0  0  0  0  0  0  0  0  0  0  0  0
   -4.2300   -0.5900    0.0000 C   0  0  0  0  0  0  0  0  0  0  0  0
   -2.9300    0.1600    0.0000 C   0  0  0  0  0  0  0  0  0  0  0  0
   -1.6300   -0.5900    0.0000 C   0  0  2  0  0  0  0  0  0  0  0  0
   -1.6300    0.9100    0.0000 C   0  0  0  0  0  0  0  0  0  0  0  0
    2.2700    0.1600    0.0000 C   0  0  2  0  0  0  0  0  0  0  0  0
    3.6900   -0.3000    0.0000 C   0  0  0  0  0  0  0  0  0  0  0  0
    4.5700    0.9100    0.0000 C   0  0  0  0  0  0  0  0  0  0  0  0
    3.6900    2.1200    0.0000 C   0  0  2  0  0  0  0  0  0  0  0  0
    4.1538    3.5465    0.0000 O   0  0  0  0  0  0  0  0  0  0  0  0
    5.6211    3.8581    0.0000 C   0  0  0  0  0  0  0  0  0  0  0  0
    6.7356    2.8541    0.0000 C   0  0  0  0  0  0  0  0  0  0  0  0
    8.0348    3.6039    0.0000 C   0  0  0  0  0  0  0  0  0  0  0  0
    7.7232    5.0712    0.0000 C   0  0  0  0  0  0  0  0  0  0  0  0
    6.2315    5.2283    0.0000 C   0  0  0  0  0  0  0  0  0  0  0  0
  2  1  1  1  0  0  0
  2  3  1  0  0  0  0
  3  4  1  0  0  0  0
  5  4  1  1  0  0  0
  5  6  1  0  0  0  0
  6  7  1  6  0  0  0
  7  8  1  0  0  0  0
  8  9  1  0  0  0  0
  9 10  2  0  0  0  0
 10 11  1  0  0  0  0
 11 12  2  0  0  0  0
 11 13  1  0  0  0  0
 13 14  2  0  0  0  0
 14 15  1  0  0  0  0
  9 15  1  0  0  0  0
  5 15  1  0  0  0  0
 15 16  1  1  0  0  0
  6 17  1  0  0  0  0
  2 17  1  0  0  0  0
 17 18  1  1  0  0  0
 18 19  1  0  0  0  0
 19 20  1  0  0  0  0
  2 20  1  0  0  0  0
 20 21  1  1  0  0  0
 21 22  1  0  0  0  0
 22 23  1  0  0  0  0
 23 24  1  0  0  0  0
 24 25  1  0  0  0  0
 25 26  1  0  0  0  0
 22 26  1  0  0  0  0
M  END
> <InChI>
InChI=1S/C24H34O2/c1-23-13-11-17(25)15-16(23)7-8-19-20-9-10-22(26-18-5-3-4-6-18)24(20,2)14-12-21(19)23/h11,13,15,18-22H,3-10,12,14H2,1-2H3/t19-,20-,21-,22-,23-,24-/m0/s1

> <InChIKey>
KFGOWXHZQZGYAA-BTNSXGMBSA-N

> <SMILES>
C[C@]12CC[C@H]3[C@@H](CCC4=CC(=O)C=C[C@@]43C)[C@@H]1CC[C@@H]2OC5CCCC5

> <Synonyms>


> <PUBCHEM_CID>


> <Molecular_formula>
C24H34O2

> <Major_Isotope_Mass>
354.255880328

> <ALogP>
5.120699999999997

> <Lipinski_Violations>
1

> <Insecticide_Likeness_Violations>
0

> <Post_Em_Herbicide_Likeness_Violations>
0

> <Metabolite_ID>
BTM00013

> <Reaction>
Reduction of alpha,beta-unsaturated carbon-carbon double bond adjacent to electron withdrawing group

> <Reaction_ID>
BTMR1310

> <Enzyme(s)>
EC 1.3.1.31

> <Biosystem>
GUTMICRO

> <Precursor_ID>


> <Precursor_SMILES>
C[C@]12CC[C@H]3[C@@H](CCC4=CC(=O)C=C[C@@]43C)[C@@H]1CC[C@@H]2OC5=CCCC5

> <Precursor_InChI>
InChI=1S/C24H32O2/c1-23-13-11-17(25)15-16(23)7-8-19-20-9-10-22(26-18-5-3-4-6-18)24(20,2)14-12-21(19)23/h5,11,13,15,19-22H,3-4,6-10,12,14H2,1-2H3/t19-,20-,21-,22-,23-,24-/m0/s1

> <Precursor_InChIKey>
IUVKMZGDUIUOCP-BTNSXGMBSA-N

> <Precursor_ALogP>


> <Precursor_Major_Isotope_Mass>
352.2402

$$$$
BTM00011
  CDK     09122622432D

 26 30  0  0  1  0  0  0  0  0999 V2000
    2.3787    3.4316    0.0000 C   0  0  0  0  0  0  0  0  0  0  0  0
    2.2200    1.9400    0.0000 C   0  0  2  0  0  0  0  0  0  0  0  0
    0.9200    2.6900    0.0000 C   0  0  0  0  0  0  0  0  0  0  0  0
   -0.3800    1.9400    0.0000 C   0  0  0  0  0  0  0  0  0  0  0  0
   -0.3800    0.4400    0.0000 C   0  0  1  0  0  0  0  0  0  0  0  0
    0.9200   -0.3100    0.0000 C   0  0  1  0  0  0  0  0  0  0  0  0
    0.9200   -1.8100    0.0000 C   0  0  0  0  0  0  0  0  0  0  0  0
   -0.3800   -2.5600    0.0000 C   0  0  0  0  0  0  0  0  0  0  0  0
   -1.6800   -1.8100    0.0000 C   0  0  0  0  0  0  0  0  0  0  0  0
   -2.9800   -2.5600    0.0000 C   0  0  0  0  0  0  0  0  0  0  0  0
   -4.2800   -1.8100    0.0000 C   0  0  0  0  0  0  0  0  0  0  0  0
   -5.5789   -2.5602    0.0000 O   0  0  0  0  0  0  0  0  0  0  0  0
   -4.2800   -0.3100    0.0000 C   0  0  0  0  0  0  0  0  0  0  0  0
   -2.9800    0.4400    0.0000 C   0  0  0  0  0  0  0  0  0  0  0  0
   -1.6800   -0.3100    0.0000 C   0  0  2  0  0  0  0  0  0  0  0  0
   -1.6800    1.1900    0.0000 C   0  0  0  0  0  0  0  0  0  0  0  0
    2.2200    0.4400    0.0000 C   0  0  2  0  0  0  0  0  0  0  0  0
    3.6500   -0.0200    0.0000 C   0  0  0  0  0  0  0  0  0  0  0  0
    4.5300    1.1900    0.0000 C   0  0  0  0  0  0  0  0  0  0  0  0
    3.6500    2.4000    0.0000 C   0  0  2  0  0  0  0  0  0  0  0  0
    4.1153    3.8260    0.0000 O   0  0  0  0  0  0  0  0  0  0  0  0
    5.5829    4.1361    0.0000 C   0  0  0  0  0  0  0  0  0  0  0  0
    6.1916    5.4900    0.0000 C   0  0  0  0  0  0  0  0  0  0  0  0
    7.6877    5.3478    0.0000 C   0  0  0  0  0  0  0  0  0  0  0  0
    7.9789    3.8764    0.0000 C   0  0  0  0  0  0  0  0  0  0  0  0
    6.6988    3.1337    0.0000 C   0  0  0  0  0  0  0  0  0  0  0  0
  2  1  1  1  0  0  0
  2  3  1  0  0  0  0
  3  4  1  0  0  0  0
  5  4  1  1  0  0  0
  5  6  1  0  0  0  0
  6  7  1  6  0  0  0
  7  8  1  0  0  0  0
  8  9  1  0  0  0  0
  9 10  2  0  0  0  0
 10 11  1  0  0  0  0
 11 12  2  0  0  0  0
 11 13  1  0  0  0  0
 13 14  1  0  0  0  0
 14 15  1  0  0  0  0
  9 15  1  0  0  0  0
  5 15  1  0  0  0  0
 15 16  1  1  0  0  0
  6 17  1  0  0  0  0
  2 17  1  0  0  0  0
 17 18  1  1  0  0  0
 18 19  1  0  0  0  0
 19 20  1  0  0  0  0
  2 20  1  0  0  0  0
 20 21  1  1  0  0  0
 21 22  1  0  0  0  0
 22 23  2  0  0  0  0
 23 24  1  0  0  0  0
 24 25  1  0  0  0  0
 25 26  1  0  0  0  0
 22 26  1  0  0  0  0
M  END
> <InChI>
InChI=1S/C24H34O2/c1-23-13-11-17(25)15-16(23)7-8-19-20-9-10-22(26-18-5-3-4-6-18)24(20,2)14-12-21(19)23/h5,15,19-22H,3-4,6-14H2,1-2H3/t19-,20-,21-,22-,23-,24-/m0/s1

> <InChIKey>
JSUOQNRTVWLDFQ-BTNSXGMBSA-N

> <SMILES>
C[C@]12CC[C@H]3[C@@H](CCC4=CC(=O)CC[C@@]43C)[C@@H]1CC[C@@H]2OC5=CCCC5

> <Synonyms>


> <PUBCHEM_CID>


> <Molecular_formula>
C24H34O2

> <Major_Isotope_Mass>
354.255880328

> <ALogP>
4.894100000000001

> <Lipinski_Violations>
1

> <Insecticide_Likeness_Violations>
0

> <Post_Em_Herbicide_Likeness_Violations>
0

> <Metabolite_ID>
BTM00011

> <Reaction>
Reduction of alpha,beta-unsaturated carbon-carbon double bond adjacent to electron withdrawing group

> <Reaction_ID>
BTMR1310

> <Enzyme(s)>
EC 1.3.1.31

> <Biosystem>
GUTMICRO

> <Precursor_ID>


> <Precursor_SMILES>
C[C@]12CC[C@H]3[C@@H](CCC4=CC(=O)C=C[C@@]43C)[C@@H]1CC[C@@H]2OC5=CCCC5

> <Precursor_InChI>
InChI=1S/C24H32O2/c1-23-13-11-17(25)15-16(23)7-8-19-20-9-10-22(26-18-5-3-4-6-18)24(20,2)14-12-21(19)23/h5,11,13,15,19-22H,3-4,6-10,12,14H2,1-2H3/t19-,20-,21-,22-,23-,24-/m0/s1

> <Precursor_InChIKey>
IUVKMZGDUIUOCP-BTNSXGMBSA-N

> <Precursor_ALogP>


> <Precursor_Major_Isotope_Mass>
352.2402

$$$$
