BTM00001
  CDK     09122622432D

 25 29  0  0  1  0  0  0  0  0999 V2000
   -0.7425    1.3300    0.0000 C   0  0  0  0  0  0  0  0  0  0  0  0
   -0.7400   -0.1700    0.0000 C   0  0  2  0  0  0  0  0  0  0  0  0
   -2.0300    0.5700    0.0000 C   0  0  0  0  0  0  0  0  0  0  0  0
   -3.3900   -0.1700    0.0000 C   0  0  0  0  0  0  0  0  0  0  0  0
   -4.8300    0.3400    0.0000 C   0  0  0  0  0  0  0  0  0  0  0  0
   -5.6400   -0.9000    0.0000 N   0  0  0  0  0  0  0  0  0  0  0  0
   -4.8300   -2.1100    0.0000 N   0  0  0  0  0  0  0  0  0  0  0  0
   -3.3900   -1.6800    0.0000 C   0  0  0  0  0  0  0  0  0  0  0  0
   -2.0300   -2.3800    0.0000 C   0  0  0  0  0  0  0  0  0  0  0  0
   -0.7400   -1.6800    0.0000 C   0  0  2  0  0  0  0  0  0  0  0  0
    0.5400   -2.3800    0.0000 C   0  0  0  0  0  0  0  0  0  0  0  0
    1.7800   -1.6800    0.0000 C   0  0  0  0  0  0  0  0  0  0  0  0
    1.7800   -0.1700    0.0000 C   0  0  2  0  0  0  0  0  0  0  0  0
    0.5400    0.5700    0.0000 C   0  0  2  0  0  0  0  0  0  0  0  0
    0.5400    2.0900    0.0000 C   0  0  0  0  0  0  0  0  0  0  0  0
    1.7800    2.8700    0.0000 C   0  0  0  0  0  0  0  0  0  0  0  0
    3.1000    2.1300    0.0000 C   0  0  1  0  0  0  0  0  0  0  0  0
    3.2652    3.6209    0.0000 C   0  0  0  0  0  0  0  0  0  0  0  0
    3.1000    0.6500    0.0000 C   0  0  1  0  0  0  0  0  0  0  0  0
    4.5400    0.1500    0.0000 C   0  0  0  0  0  0  0  0  0  0  0  0
    5.3600    1.3900    0.0000 C   0  0  0  0  0  0  0  0  0  0  0  0
    4.5400    2.5600    0.0000 C   0  0  1  0  0  0  0  0  0  0  0  0
    5.8533    3.2847    0.0000 C   0  0  0  0  0  0  0  0  0  0  0  0
    3.9597    3.9432    0.0000 O   0  0  0  0  0  0  0  0  0  0  0  0
   -0.7730    2.8153    0.0000 O   0  0  0  0  0  0  0  0  0  0  0  0
  2  1  1  1  0  0  0
  2  3  1  0  0  0  0
  3  4  1  0  0  0  0
  4  5  1  0  0  0  0
  5  6  2  0  0  0  0
  6  7  1  0  0  0  0
  7  8  1  0  0  0  0
  4  8  2  0  0  0  0
  8  9  1  0  0  0  0
 10  9  1  1  0  0  0
  2 10  1  0  0  0  0
 10 11  1  0  0  0  0
 11 12  1  0  0  0  0
 13 12  1  6  0  0  0
 13 14  1  0  0  0  0
  2 14  1  0  0  0  0
 14 15  1  1  0  0  0
 15 16  1  0  0  0  0
 16 17  1  0  0  0  0
 17 18  1  1  0  0  0
 17 19  1  0  0  0  0
 13 19  1  0  0  0  0
 19 20  1  1  0  0  0
 20 21  1  0  0  0  0
 21 22  1  0  0  0  0
 17 22  1  0  0  0  0
 22 23  1  6  0  0  0
 22 24  1  1  0  0  0
 25 15  1  0  0  0  0
M  END
> <InChI>
InChI=1S/C21H32N2O2/c1-19-9-12-11-22-23-16(12)8-13(19)4-5-14-15-6-7-21(3,25)20(15,2)10-17(24)18(14)19/h11,13-15,17-18,24-25H,4-10H2,1-3H3,(H,22,23)/t13-,14-,15-,17?,18+,19-,20-,21-/m0/s1

> <InChIKey>
FVTWHSOEIQNORO-SWTGIRIGSA-N

> <SMILES>
C[C@]12CC=3C=NNC3C[C@@H]1CC[C@@H]4[C@@H]2C(C[C@@]5(C)[C@H]4CC[C@]5(C)O)O

> <Synonyms>


> <PUBCHEM_CID>


> <Molecular_formula>
C21H32N2O2

> <Major_Isotope_Mass>
344.246378264

> <ALogP>
2.6803000000000012

> <Lipinski_Violations>
0

> <Insecticide_Likeness_Violations>
1

> <Post_Em_Herbicide_Likeness_Violations>
1

> <Metabolite_ID>
BTM00001

> <Reaction>
11-beta-Hydroxylation of sterol

> <Reaction_ID>
BTMR0406

> <Enzyme(s)>
EC 1.14.15.4

> <Biosystem>
HUMAN

> <Precursor_ID>


> <Precursor_SMILES>
C[C@]12CC=3C=NNC3C[C@@H]1CC[C@@H]4[C@@H]2CC[C@@]5(C)[C@H]4CC[C@]5(C)O

> <Precursor_InChI>
InChI=1S/C21H32N2O/c1-19-11-13-12-22-23-18(13)10-14(19)4-5-15-16(19)6-8-20(2)17(15)7-9-21(20,3)24/h12,14-17,24H,4-11H2,1-3H3,(H,22,23)/t14-,15+,16-,17-,19-,20-,21-/m0/s1

> <Precursor_InChIKey>
LKAJKIOFIWVMDJ-IYRCEVNGSA-N

> <Precursor_ALogP>


> <Precursor_Major_Isotope_Mass>
328.2514

$$$$
BTM00002
  CDK     09122622432D

 36 41  0  0  1  0  0  0  0  0999 V2000
   -0.7425    1.3300    0.0000 C   0  0  0  0  0  0  0  0  0  0  0  0
   -0.7400   -0.1700    0.0000 C   0  0  2  0  0  0  0  0  0  0  0  0
   -2.0300    0.5700    0.0000 C   0  0  0  0  0  0  0  0  0  0  0  0
   -3.3900   -0.1700    0.0000 C   0  0  0  0  0  0  0  0  0  0  0  0
   -4.8300    0.3400    0.0000 C   0  0  0  0  0  0  0  0  0  0  0  0
   -5.6400   -0.9000    0.0000 N   0  0  0  0  0  0  0  0  0  0  0  0
   -4.8300   -2.1100    0.0000 N   0  0  0  0  0  0  0  0  0  0  0  0
   -3.3900   -1.6800    0.0000 C   0  0  0  0  0  0  0  0  0  0  0  0
   -2.0300   -2.3800    0.0000 C   0  0  0  0  0  0  0  0  0  0  0  0
   -0.7400   -1.6800    0.0000 C   0  0  2  0  0  0  0  0  0  0  0  0
    0.5400   -2.3800    0.0000 C   0  0  0  0  0  0  0  0  0  0  0  0
    1.7800   -1.6800    0.0000 C   0  0  0  0  0  0  0  0  0  0  0  0
    1.7800   -0.1700    0.0000 C   0  0  2  0  0  0  0  0  0  0  0  0
    0.5400    0.5700    0.0000 C   0  0  2  0  0  0  0  0  0  0  0  0
    0.5400    2.0900    0.0000 C   0  0  0  0  0  0  0  0  0  0  0  0
    1.7800    2.8700    0.0000 C   0  0  0  0  0  0  0  0  0  0  0  0
    3.1000    2.1300    0.0000 C   0  0  1  0  0  0  0  0  0  0  0  0
    3.2652    3.6209    0.0000 C   0  0  0  0  0  0  0  0  0  0  0  0
    3.1000    0.6500    0.0000 C   0  0  1  0  0  0  0  0  0  0  0  0
    4.5400    0.1500    0.0000 C   0  0  0  0  0  0  0  0  0  0  0  0
    5.3600    1.3900    0.0000 C   0  0  0  0  0  0  0  0  0  0  0  0
    4.5400    2.5600    0.0000 C   0  0  1  0  0  0  0  0  0  0  0  0
    5.8533    3.2847    0.0000 C   0  0  0  0  0  0  0  0  0  0  0  0
    3.9597    3.9432    0.0000 O   0  0  0  0  0  0  0  0  0  0  0  0
   -8.7976   -5.4663    0.0000 O   0  0  0  0  0  0  0  0  0  0  0  0
   -7.3214   -5.2001    0.0000 C   0  0  0  0  0  0  0  0  0  0  0  0
   -6.8140   -3.7876    0.0000 C   0  0  0  0  0  0  0  0  0  0  0  0
   -7.7828   -2.6425    0.0000 O   0  0  0  0  0  0  0  0  0  0  0  0
   -5.3378   -3.5214    0.0000 C   0  0  0  0  0  0  0  0  0  0  0  0
   -4.3690   -4.6677    0.0000 O   0  0  0  0  0  0  0  0  0  0  0  0
   -4.8764   -6.0802    0.0000 C   0  0  0  0  0  0  0  0  0  0  0  0
   -6.3526   -6.3464    0.0000 C   0  0  0  0  0  0  0  0  0  0  0  0
   -6.8604   -7.7578    0.0000 O   0  0  0  0  0  0  0  0  0  0  0  0
   -3.9076   -7.2253    0.0000 C   0  0  0  0  0  0  0  0  0  0  0  0
   -4.4149   -8.6369    0.0000 O   0  0  0  0  0  0  0  0  0  0  0  0
   -2.4314   -6.9589    0.0000 O   0  0  0  0  0  0  0  0  0  0  0  0
  2  1  1  1  0  0  0
  2  3  1  0  0  0  0
  3  4  1  0  0  0  0
  4  5  1  0  0  0  0
  5  6  2  0  0  0  0
  6  7  1  0  0  0  0
  7  8  1  0  0  0  0
  4  8  2  0  0  0  0
  8  9  1  0  0  0  0
 10  9  1  1  0  0  0
  2 10  1  0  0  0  0
 10 11  1  0  0  0  0
 11 12  1  0  0  0  0
 13 12  1  6  0  0  0
 13 14  1  0  0  0  0
  2 14  1  0  0  0  0
 14 15  1  1  0  0  0
 15 16  1  0  0  0  0
 16 17  1  0  0  0  0
 17 18  1  1  0  0  0
 17 19  1  0  0  0  0
 13 19  1  0  0  0  0
 19 20  1  1  0  0  0
 20 21  1  0  0  0  0
 21 22  1  0  0  0  0
 17 22  1  0  0  0  0
 22 23  1  6  0  0  0
 22 24  1  1  0  0  0
 25 26  1  0  0  0  0
 26 27  1  0  0  0  0
 27 28  1  0  0  0  0
 27 29  1  0  0  0  0
 29 30  1  0  0  0  0
 30 31  1  0  0  0  0
 31 32  1  0  0  0  0
 26 32  1  0  0  0  0
 32 33  1  0  0  0  0
 31 34  1  0  0  0  0
 34 35  1  0  0  0  0
 34 36  2  0  0  0  0
 29  7  1  0  0  0  0
M  END
> <InChI>
InChI=1S/C27H40N2O7/c1-25-11-13-12-28-29(23-21(32)19(30)20(31)22(36-23)24(33)34)18(13)10-14(25)4-5-15-16(25)6-8-26(2)17(15)7-9-27(26,3)35/h12,14-17,19-23,30-32,35H,4-11H2,1-3H3,(H,33,34)/t14-,15+,16-,17-,19?,20?,21?,22?,23?,25-,26-,27-/m0/s1

> <InChIKey>
IYTCJHAITRCOFI-KOPXMLMXSA-N

> <SMILES>
C[C@]12CC=3C=NN(C3C[C@@H]1CC[C@@H]4[C@@H]2CC[C@@]5(C)[C@H]4CC[C@]5(C)O)C6C(C(O)C(C(O6)C(O)=O)O)O

> <Synonyms>


> <PUBCHEM_CID>


> <Molecular_formula>
C27H40N2O7

> <Major_Isotope_Mass>
504.28355161999997

> <ALogP>
2.109099999999996

> <Lipinski_Violations>
1

> <Insecticide_Likeness_Violations>
1

> <Post_Em_Herbicide_Likeness_Violations>
1

> <Metabolite_ID>
BTM00002

> <Reaction>
N-Glucuronidation of azole

> <Reaction_ID>
BTMR0174

> <Enzyme(s)>
EC 2.4.1.17

> <Biosystem>
HUMAN

> <Precursor_ID>


> <Precursor_SMILES>
C[C@]12CC=3C=NNC3C[C@@H]1CC[C@@H]4[C@@H]2CC[C@@]5(C)[C@H]4CC[C@]5(C)O

> <Precursor_InChI>
InChI=1S/C21H32N2O/c1-19-11-13-12-22-23-18(13)10-14(19)4-5-15-16(19)6-8-20(2)17(15)7-9-21(20,3)24/h12,14-17,24H,4-11H2,1-3H3,(H,22,23)/t14-,15+,16-,17-,19-,20-,21-/m0/s1

> <Precursor_InChIKey>
LKAJKIOFIWVMDJ-IYRCEVNGSA-N

> <Precursor_ALogP>


> <Precursor_Major_Isotope_Mass>
328.2514

$$$$
BTM00003
  CDK     09122622432D

 36 41  0  0  1  0  0  0  0  0999 V2000
   -0.7425    1.3300    0.0000 C   0  0  0  0  0  0  0  0  0  0  0  0
   -0.7400   -0.1700    0.0000 C   0  0  2  0  0  0  0  0  0  0  0  0
   -2.0300    0.5700    0.0000 C   0  0  0  0  0  0  0  0  0  0  0  0
   -3.3900   -0.1700    0.0000 C   0  0  0  0  0  0  0  0  0  0  0  0
   -4.8300    0.3400    0.0000 C   0  0  0  0  0  0  0  0  0  0  0  0
   -5.6400   -0.9000    0.0000 N   0  0  0  0  0  0  0  0  0  0  0  0
   -4.8300   -2.1100    0.0000 N   0  0  0  0  0  0  0  0  0  0  0  0
   -3.3900   -1.6800    0.0000 C   0  0  0  0  0  0  0  0  0  0  0  0
   -2.0300   -2.3800    0.0000 C   0  0  0  0  0  0  0  0  0  0  0  0
   -0.7400   -1.6800    0.0000 C   0  0  2  0  0  0  0  0  0  0  0  0
    0.5400   -2.3800    0.0000 C   0  0  0  0  0  0  0  0  0  0  0  0
    1.7800   -1.6800    0.0000 C   0  0  0  0  0  0  0  0  0  0  0  0
    1.7800   -0.1700    0.0000 C   0  0  2  0  0  0  0  0  0  0  0  0
    0.5400    0.5700    0.0000 C   0  0  2  0  0  0  0  0  0  0  0  0
    0.5400    2.0900    0.0000 C   0  0  0  0  0  0  0  0  0  0  0  0
    1.7800    2.8700    0.0000 C   0  0  0  0  0  0  0  0  0  0  0  0
    3.1000    2.1300    0.0000 C   0  0  1  0  0  0  0  0  0  0  0  0
    3.2652    3.6209    0.0000 C   0  0  0  0  0  0  0  0  0  0  0  0
    3.1000    0.6500    0.0000 C   0  0  1  0  0  0  0  0  0  0  0  0
    4.5400    0.1500    0.0000 C   0  0  0  0  0  0  0  0  0  0  0  0
    5.3600    1.3900    0.0000 C   0  0  0  0  0  0  0  0  0  0  0  0
    4.5400    2.5600    0.0000 C   0  0  1  0  0  0  0  0  0  0  0  0
    5.8533    3.2847    0.0000 C   0  0  0  0  0  0  0  0  0  0  0  0
    3.9597    3.9432    0.0000 O   0  0  0  0  0  0  0  0  0  0  0  0
    2.8085    6.7084    0.0000 O   0  0  0  0  0  0  0  0  0  0  0  0
    4.2958    6.5133    0.0000 C   0  0  0  0  0  0  0  0  0  0  0  0
    5.2232    7.7216    0.0000 C   0  0  0  0  0  0  0  0  0  0  0  0
    4.6523    9.1087    0.0000 O   0  0  0  0  0  0  0  0  0  0  0  0
    6.7153    7.5185    0.0000 C   0  0  0  0  0  0  0  0  0  0  0  0
    7.6304    8.7071    0.0000 O   0  0  0  0  0  0  0  0  0  0  0  0
    7.2870    6.1426    0.0000 C   0  0  0  0  0  0  0  0  0  0  0  0
    6.3742    4.9512    0.0000 O   0  0  0  0  0  0  0  0  0  0  0  0
    4.8675    5.1374    0.0000 C   0  0  0  0  0  0  0  0  0  0  0  0
    8.7743    5.9481    0.0000 C   0  0  0  0  0  0  0  0  0  0  0  0
    9.6864    7.1390    0.0000 O   0  0  0  0  0  0  0  0  0  0  0  0
    9.3496    4.5628    0.0000 O   0  0  0  0  0  0  0  0  0  0  0  0
  2  1  1  1  0  0  0
  2  3  1  0  0  0  0
  3  4  1  0  0  0  0
  4  5  1  0  0  0  0
  5  6  2  0  0  0  0
  6  7  1  0  0  0  0
  7  8  1  0  0  0  0
  4  8  2  0  0  0  0
  8  9  1  0  0  0  0
 10  9  1  1  0  0  0
  2 10  1  0  0  0  0
 10 11  1  0  0  0  0
 11 12  1  0  0  0  0
 13 12  1  6  0  0  0
 13 14  1  0  0  0  0
  2 14  1  0  0  0  0
 14 15  1  1  0  0  0
 15 16  1  0  0  0  0
 16 17  1  0  0  0  0
 17 18  1  1  0  0  0
 17 19  1  0  0  0  0
 13 19  1  0  0  0  0
 19 20  1  1  0  0  0
 20 21  1  0  0  0  0
 21 22  1  0  0  0  0
 17 22  1  0  0  0  0
 22 23  1  6  0  0  0
 22 24  1  1  0  0  0
 25 26  1  0  0  0  0
 26 27  1  0  0  0  0
 27 28  1  0  0  0  0
 27 29  1  0  0  0  0
 29 30  1  0  0  0  0
 29 31  1  0  0  0  0
 31 32  1  0  0  0  0
 32 33  1  0  0  0  0
 26 33  1  0  0  0  0
 33 24  1  0  0  0  0
 31 34  1  0  0  0  0
 34 35  1  0  0  0  0
 34 36  2  0  0  0  0
M  END
> <InChI>
InChI=1S/C27H40N2O7/c1-25-11-13-12-28-29-18(13)10-14(25)4-5-15-16(25)6-8-26(2)17(15)7-9-27(26,3)36-24-21(32)19(30)20(31)22(35-24)23(33)34/h12,14-17,19-22,24,30-32H,4-11H2,1-3H3,(H,28,29)(H,33,34)/t14-,15+,16-,17-,19?,20?,21?,22?,24?,25-,26-,27-/m0/s1

> <InChIKey>
ZRRYSZAWANEVCT-RMGJYNEESA-N

> <SMILES>
C[C@]12CC=3C=NNC3C[C@@H]1CC[C@@H]4[C@@H]2CC[C@@]5(C)[C@H]4CC[C@]5(C)OC6OC(C(C(C6O)O)O)C(O)=O

> <Synonyms>


> <PUBCHEM_CID>


> <Molecular_formula>
C27H40N2O7

> <Major_Isotope_Mass>
504.28355161999997

> <ALogP>
2.3116999999999965

> <Lipinski_Violations>
1

> <Insecticide_Likeness_Violations>
1

> <Post_Em_Herbicide_Likeness_Violations>
1

> <Metabolite_ID>
BTM00003

> <Reaction>
17-OH-Glucuronidation of sterol

> <Reaction_ID>
BTMR0163

> <Enzyme(s)>
EC 2.4.1.17

> <Biosystem>
HUMAN

> <Precursor_ID>


> <Precursor_SMILES>
C[C@]12CC=3C=NNC3C[C@@H]1CC[C@@H]4[C@@H]2CC[C@@]5(C)[C@H]4CC[C@]5(C)O

> <Precursor_InChI>
InChI=1S/C21H32N2O/c1-19-11-13-12-22-23-18(13)10-14(19)4-5-15-16(19)6-8-20(2)17(15)7-9-21(20,3)24/h12,14-17,24H,4-11H2,1-3H3,(H,22,23)/t14-,15+,16-,17-,19-,20-,21-/m0/s1

> <Precursor_InChIKey>
LKAJKIOFIWVMDJ-IYRCEVNGSA-N

> <Precursor_ALogP>


> <Precursor_Major_Isotope_Mass>
328.2514

$$$$
BTM00004
  CDK     09122622432D

 25 29  0  0  1  0  0  0  0  0999 V2000
   -0.7425    1.3300    0.0000 C   0  0  0  0  0  0  0  0  0  0  0  0
   -0.7400   -0.1700    0.0000 C   0  0  2  0  0  0  0  0  0  0  0  0
   -2.0300    0.5700    0.0000 C   0  0  0  0  0  0  0  0  0  0  0  0
   -3.3900   -0.1700    0.0000 C   0  0  0  0  0  0  0  0  0  0  0  0
   -4.8300    0.3400    0.0000 C   0  0  0  0  0  0  0  0  0  0  0  0
   -5.6400   -0.9000    0.0000 N   0  0  0  0  0  0  0  0  0  0  0  0
   -4.8300   -2.1100    0.0000 N   0  0  0  0  0  0  0  0  0  0  0  0
   -3.3900   -1.6800    0.0000 C   0  0  0  0  0  0  0  0  0  0  0  0
   -2.0300   -2.3800    0.0000 C   0  0  0  0  0  0  0  0  0  0  0  0
   -0.7400   -1.6800    0.0000 C   0  0  2  0  0  0  0  0  0  0  0  0
    0.5400   -2.3800    0.0000 C   0  0  0  0  0  0  0  0  0  0  0  0
    1.7800   -1.6800    0.0000 C   0  0  0  0  0  0  0  0  0  0  0  0
    1.7800   -0.1700    0.0000 C   0  0  2  0  0  0  0  0  0  0  0  0
    0.5400    0.5700    0.0000 C   0  0  2  0  0  0  0  0  0  0  0  0
    0.5400    2.0900    0.0000 C   0  0  0  0  0  0  0  0  0  0  0  0
    1.7800    2.8700    0.0000 C   0  0  0  0  0  0  0  0  0  0  0  0
    3.1000    2.1300    0.0000 C   0  0  1  0  0  0  0  0  0  0  0  0
    3.2652    3.6209    0.0000 C   0  0  0  0  0  0  0  0  0  0  0  0
    3.1000    0.6500    0.0000 C   0  0  1  0  0  0  0  0  0  0  0  0
    4.5400    0.1500    0.0000 C   0  0  0  0  0  0  0  0  0  0  0  0
    5.3600    1.3900    0.0000 C   0  0  0  0  0  0  0  0  0  0  0  0
    4.5400    2.5600    0.0000 C   0  0  1  0  0  0  0  0  0  0  0  0
    5.8533    3.2847    0.0000 C   0  0  0  0  0  0  0  0  0  0  0  0
    3.9597    3.9432    0.0000 O   0  0  0  0  0  0  0  0  0  0  0  0
    6.8599    1.4103    0.0000 O   0  0  0  0  0  0  0  0  0  0  0  0
  2  1  1  1  0  0  0
  2  3  1  0  0  0  0
  3  4  1  0  0  0  0
  4  5  1  0  0  0  0
  5  6  2  0  0  0  0
  6  7  1  0  0  0  0
  7  8  1  0  0  0  0
  4  8  2  0  0  0  0
  8  9  1  0  0  0  0
 10  9  1  1  0  0  0
  2 10  1  0  0  0  0
 10 11  1  0  0  0  0
 11 12  1  0  0  0  0
 13 12  1  6  0  0  0
 13 14  1  0  0  0  0
  2 14  1  0  0  0  0
 14 15  1  1  0  0  0
 15 16  1  0  0  0  0
 16 17  1  0  0  0  0
 17 18  1  1  0  0  0
 17 19  1  0  0  0  0
 13 19  1  0  0  0  0
 19 20  1  1  0  0  0
 20 21  1  0  0  0  0
 21 22  1  0  0  0  0
 17 22  1  0  0  0  0
 22 23  1  6  0  0  0
 22 24  1  1  0  0  0
 25 21  1  0  0  0  0
M  END
> <InChI>
InChI=1S/C21H32N2O2/c1-19-10-12-11-22-23-17(12)8-13(19)4-5-14-15(19)6-7-20(2)16(14)9-18(24)21(20,3)25/h11,13-16,18,24-25H,4-10H2,1-3H3,(H,22,23)/t13-,14+,15-,16-,18?,19-,20-,21-/m0/s1

> <InChIKey>
IZGBPAAEPVNBGA-CIJIJRDNSA-N

> <SMILES>
C[C@]12CC=3C=NNC3C[C@@H]1CC[C@@H]4[C@@H]2CC[C@@]5(C)[C@H]4CC([C@]5(C)O)O

> <Synonyms>


> <PUBCHEM_CID>


> <Molecular_formula>
C21H32N2O2

> <Major_Isotope_Mass>
344.246378264

> <ALogP>
2.882800000000001

> <Lipinski_Violations>
1

> <Insecticide_Likeness_Violations>
1

> <Post_Em_Herbicide_Likeness_Violations>
1

> <Metabolite_ID>
BTM00004

> <Reaction>
16-Hydroxylation of sterol

> <Reaction_ID>
BTMR0407

> <Enzyme(s)>
CYP1A2
CYP2A6
CYP2B6
CYP2C8
CYP2C9
CYP2C19
CYP2D6
CYP2E1
CYP3A4

> <Biosystem>
HUMAN

> <Precursor_ID>


> <Precursor_SMILES>
C[C@]12CC=3C=NNC3C[C@@H]1CC[C@@H]4[C@@H]2CC[C@@]5(C)[C@H]4CC[C@]5(C)O

> <Precursor_InChI>
InChI=1S/C21H32N2O/c1-19-11-13-12-22-23-18(13)10-14(19)4-5-15-16(19)6-8-20(2)17(15)7-9-21(20,3)24/h12,14-17,24H,4-11H2,1-3H3,(H,22,23)/t14-,15+,16-,17-,19-,20-,21-/m0/s1

> <Precursor_InChIKey>
LKAJKIOFIWVMDJ-IYRCEVNGSA-N

> <Precursor_ALogP>


> <Precursor_Major_Isotope_Mass>
328.2514

$$$$
BTM00005
  CDK     09122622432D

 25 29  0  0  1  0  0  0  0  0999 V2000
   -0.7425    1.3300    0.0000 C   0  0  0  0  0  0  0  0  0  0  0  0
   -0.7400   -0.1700    0.0000 C   0  0  2  0  0  0  0  0  0  0  0  0
   -2.0300    0.5700    0.0000 C   0  0  0  0  0  0  0  0  0  0  0  0
   -3.3900   -0.1700    0.0000 C   0  0  0  0  0  0  0  0  0  0  0  0
   -4.8300    0.3400    0.0000 C   0  0  0  0  0  0  0  0  0  0  0  0
   -5.6400   -0.9000    0.0000 N   0  0  0  0  0  0  0  0  0  0  0  0
   -4.8300   -2.1100    0.0000 N   0  0  0  0  0  0  0  0  0  0  0  0
   -3.3900   -1.6800    0.0000 C   0  0  0  0  0  0  0  0  0  0  0  0
   -2.0300   -2.3800    0.0000 C   0  0  0  0  0  0  0  0  0  0  0  0
   -0.7400   -1.6800    0.0000 C   0  0  2  0  0  0  0  0  0  0  0  0
    0.5400   -2.3800    0.0000 C   0  0  0  0  0  0  0  0  0  0  0  0
    1.7800   -1.6800    0.0000 C   0  0  0  0  0  0  0  0  0  0  0  0
    1.7800   -0.1700    0.0000 C   0  0  2  0  0  0  0  0  0  0  0  0
    0.5400    0.5700    0.0000 C   0  0  2  0  0  0  0  0  0  0  0  0
    0.5400    2.0900    0.0000 C   0  0  0  0  0  0  0  0  0  0  0  0
    1.7800    2.8700    0.0000 C   0  0  0  0  0  0  0  0  0  0  0  0
    3.1000    2.1300    0.0000 C   0  0  1  0  0  0  0  0  0  0  0  0
    3.2652    3.6209    0.0000 C   0  0  0  0  0  0  0  0  0  0  0  0
    3.1000    0.6500    0.0000 C   0  0  1  0  0  0  0  0  0  0  0  0
    4.5400    0.1500    0.0000 C   0  0  0  0  0  0  0  0  0  0  0  0
    5.3600    1.3900    0.0000 C   0  0  0  0  0  0  0  0  0  0  0  0
    4.5400    2.5600    0.0000 C   0  0  1  0  0  0  0  0  0  0  0  0
    5.8533    3.2847    0.0000 C   0  0  0  0  0  0  0  0  0  0  0  0
    3.9597    3.9432    0.0000 O   0  0  0  0  0  0  0  0  0  0  0  0
   -2.0136   -3.8799    0.0000 O   0  0  0  0  0  0  0  0  0  0  0  0
  2  1  1  1  0  0  0
  2  3  1  0  0  0  0
  3  4  1  0  0  0  0
  4  5  1  0  0  0  0
  5  6  2  0  0  0  0
  6  7  1  0  0  0  0
  7  8  1  0  0  0  0
  4  8  2  0  0  0  0
  8  9  1  0  0  0  0
  9 10  1  0  0  0  0
  2 10  1  0  0  0  0
 10 11  1  1  0  0  0
 11 12  1  0  0  0  0
 13 12  1  6  0  0  0
 13 14  1  0  0  0  0
  2 14  1  0  0  0  0
 14 15  1  1  0  0  0
 15 16  1  0  0  0  0
 16 17  1  0  0  0  0
 17 18  1  1  0  0  0
 17 19  1  0  0  0  0
 13 19  1  0  0  0  0
 19 20  1  1  0  0  0
 20 21  1  0  0  0  0
 21 22  1  0  0  0  0
 17 22  1  0  0  0  0
 22 23  1  6  0  0  0
 22 24  1  1  0  0  0
 25  9  1  0  0  0  0
M  END
> <InChI>
InChI=1S/C21H32N2O2/c1-19-10-12-11-22-23-17(12)18(24)16(19)5-4-13-14(19)6-8-20(2)15(13)7-9-21(20,3)25/h11,13-16,18,24-25H,4-10H2,1-3H3,(H,22,23)/t13-,14+,15+,16+,18?,19-,20+,21+/m1/s1

> <InChIKey>
OCUSYXNRARMJHS-GOHYLBLQSA-N

> <SMILES>
C[C@]12CC=3C=NNC3C([C@@H]1CC[C@@H]4[C@@H]2CC[C@@]5(C)[C@H]4CC[C@]5(C)O)O

> <Synonyms>


> <PUBCHEM_CID>


> <Molecular_formula>
C21H32N2O2

> <Major_Isotope_Mass>
344.246378264

> <ALogP>
3.2367000000000026

> <Lipinski_Violations>
1

> <Insecticide_Likeness_Violations>
1

> <Post_Em_Herbicide_Likeness_Violations>
1

> <Metabolite_ID>
BTM00005

> <Reaction>
4-Hydroxylation of sterol

> <Reaction_ID>
BTMR0400

> <Enzyme(s)>
CYP1A2
CYP3A4

> <Biosystem>
HUMAN

> <Precursor_ID>


> <Precursor_SMILES>
C[C@]12CC=3C=NNC3C[C@@H]1CC[C@@H]4[C@@H]2CC[C@@]5(C)[C@H]4CC[C@]5(C)O

> <Precursor_InChI>
InChI=1S/C21H32N2O/c1-19-11-13-12-22-23-18(13)10-14(19)4-5-15-16(19)6-8-20(2)17(15)7-9-21(20,3)24/h12,14-17,24H,4-11H2,1-3H3,(H,22,23)/t14-,15+,16-,17-,19-,20-,21-/m0/s1

> <Precursor_InChIKey>
LKAJKIOFIWVMDJ-IYRCEVNGSA-N

> <Precursor_ALogP>


> <Precursor_Major_Isotope_Mass>
328.2514

$$$$
BTM00006
  CDK     09122622432D

 25 29  0  0  1  0  0  0  0  0999 V2000
   -0.7425    1.3300    0.0000 C   0  0  0  0  0  0  0  0  0  0  0  0
   -0.7400   -0.1700    0.0000 C   0  0  2  0  0  0  0  0  0  0  0  0
   -2.0300    0.5700    0.0000 C   0  0  0  0  0  0  0  0  0  0  0  0
   -3.3900   -0.1700    0.0000 C   0  0  0  0  0  0  0  0  0  0  0  0
   -4.8300    0.3400    0.0000 C   0  0  0  0  0  0  0  0  0  0  0  0
   -5.6400   -0.9000    0.0000 N   0  0  0  0  0  0  0  0  0  0  0  0
   -4.8300   -2.1100    0.0000 N   0  0  0  0  0  0  0  0  0  0  0  0
   -3.3900   -1.6800    0.0000 C   0  0  0  0  0  0  0  0  0  0  0  0
   -2.0300   -2.3800    0.0000 C   0  0  0  0  0  0  0  0  0  0  0  0
   -0.7400   -1.6800    0.0000 C   0  0  2  0  0  0  0  0  0  0  0  0
    0.5400   -2.3800    0.0000 C   0  0  0  0  0  0  0  0  0  0  0  0
    1.7800   -1.6800    0.0000 C   0  0  0  0  0  0  0  0  0  0  0  0
    1.7800   -0.1700    0.0000 C   0  0  2  0  0  0  0  0  0  0  0  0
    0.5400    0.5700    0.0000 C   0  0  2  0  0  0  0  0  0  0  0  0
    0.5400    2.0900    0.0000 C   0  0  0  0  0  0  0  0  0  0  0  0
    1.7800    2.8700    0.0000 C   0  0  0  0  0  0  0  0  0  0  0  0
    3.1000    2.1300    0.0000 C   0  0  1  0  0  0  0  0  0  0  0  0
    3.2652    3.6209    0.0000 C   0  0  0  0  0  0  0  0  0  0  0  0
    3.1000    0.6500    0.0000 C   0  0  1  0  0  0  0  0  0  0  0  0
    4.5400    0.1500    0.0000 C   0  0  0  0  0  0  0  0  0  0  0  0
    5.3600    1.3900    0.0000 C   0  0  0  0  0  0  0  0  0  0  0  0
    4.5400    2.5600    0.0000 C   0  0  1  0  0  0  0  0  0  0  0  0
    5.8533    3.2847    0.0000 C   0  0  0  0  0  0  0  0  0  0  0  0
    3.9597    3.9432    0.0000 O   0  0  0  0  0  0  0  0  0  0  0  0
    0.5501   -3.8800    0.0000 O   0  0  0  0  0  0  0  0  0  0  0  0
  2  1  1  1  0  0  0
  2  3  1  0  0  0  0
  3  4  1  0  0  0  0
  4  5  1  0  0  0  0
  5  6  2  0  0  0  0
  6  7  1  0  0  0  0
  7  8  1  0  0  0  0
  4  8  2  0  0  0  0
  8  9  1  0  0  0  0
 10  9  1  1  0  0  0
  2 10  1  0  0  0  0
 10 11  1  0  0  0  0
 11 12  1  0  0  0  0
 13 12  1  6  0  0  0
 13 14  1  0  0  0  0
  2 14  1  0  0  0  0
 14 15  1  1  0  0  0
 15 16  1  0  0  0  0
 16 17  1  0  0  0  0
 17 18  1  1  0  0  0
 17 19  1  0  0  0  0
 13 19  1  0  0  0  0
 19 20  1  1  0  0  0
 20 21  1  0  0  0  0
 21 22  1  0  0  0  0
 17 22  1  0  0  0  0
 22 23  1  6  0  0  0
 22 24  1  1  0  0  0
 25 11  1  0  0  0  0
M  END
> <InChI>
InChI=1S/C21H32N2O2/c1-19-10-12-11-22-23-17(12)9-16(19)18(24)8-13-14(19)4-6-20(2)15(13)5-7-21(20,3)25/h11,13-16,18,24-25H,4-10H2,1-3H3,(H,22,23)/t13-,14+,15+,16-,18?,19-,20+,21+/m1/s1

> <InChIKey>
ZGXUFMUEOXDZPA-PDMZLFMJSA-N

> <SMILES>
C[C@]12CC=3C=NNC3C[C@@H]1C(C[C@@H]4[C@@H]2CC[C@@]5(C)[C@H]4CC[C@]5(C)O)O

> <Synonyms>


> <PUBCHEM_CID>


> <Molecular_formula>
C21H32N2O2

> <Major_Isotope_Mass>
344.246378264

> <ALogP>
2.6803000000000012

> <Lipinski_Violations>
0

> <Insecticide_Likeness_Violations>
1

> <Post_Em_Herbicide_Likeness_Violations>
1

> <Metabolite_ID>
BTM00006

> <Reaction>
6-Hydroxylation of sterol

> <Reaction_ID>
BTMR0402

> <Enzyme(s)>
CYP2A6
CYP2B6
CYP2C8
CYP2C9
CYP2C19
CYP2D6
CYP3A4

> <Biosystem>
HUMAN

> <Precursor_ID>


> <Precursor_SMILES>
C[C@]12CC=3C=NNC3C[C@@H]1CC[C@@H]4[C@@H]2CC[C@@]5(C)[C@H]4CC[C@]5(C)O

> <Precursor_InChI>
InChI=1S/C21H32N2O/c1-19-11-13-12-22-23-18(13)10-14(19)4-5-15-16(19)6-8-20(2)17(15)7-9-21(20,3)24/h12,14-17,24H,4-11H2,1-3H3,(H,22,23)/t14-,15+,16-,17-,19-,20-,21-/m0/s1

> <Precursor_InChIKey>
LKAJKIOFIWVMDJ-IYRCEVNGSA-N

> <Precursor_ALogP>


> <Precursor_Major_Isotope_Mass>
328.2514

$$$$
BTM00007
  CDK     09122622432D

 25 29  0  0  1  0  0  0  0  0999 V2000
   -0.7425    1.3300    0.0000 C   0  0  0  0  0  0  0  0  0  0  0  0
   -0.7400   -0.1700    0.0000 C   0  0  2  0  0  0  0  0  0  0  0  0
   -2.0300    0.5700    0.0000 C   0  0  0  0  0  0  0  0  0  0  0  0
   -3.3900   -0.1700    0.0000 C   0  0  0  0  0  0  0  0  0  0  0  0
   -4.8300    0.3400    0.0000 C   0  0  0  0  0  0  0  0  0  0  0  0
   -5.6400   -0.9000    0.0000 N   0  0  0  0  0  0  0  0  0  0  0  0
   -4.8300   -2.1100    0.0000 N   0  0  0  0  0  0  0  0  0  0  0  0
   -3.3900   -1.6800    0.0000 C   0  0  0  0  0  0  0  0  0  0  0  0
   -2.0300   -2.3800    0.0000 C   0  0  0  0  0  0  0  0  0  0  0  0
   -0.7400   -1.6800    0.0000 C   0  0  2  0  0  0  0  0  0  0  0  0
    0.5400   -2.3800    0.0000 C   0  0  0  0  0  0  0  0  0  0  0  0
    1.7800   -1.6800    0.0000 C   0  0  0  0  0  0  0  0  0  0  0  0
    1.7800   -0.1700    0.0000 C   0  0  2  0  0  0  0  0  0  0  0  0
    0.5400    0.5700    0.0000 C   0  0  2  0  0  0  0  0  0  0  0  0
    0.5400    2.0900    0.0000 C   0  0  0  0  0  0  0  0  0  0  0  0
    1.7800    2.8700    0.0000 C   0  0  0  0  0  0  0  0  0  0  0  0
    3.1000    2.1300    0.0000 C   0  0  1  0  0  0  0  0  0  0  0  0
    3.2652    3.6209    0.0000 C   0  0  0  0  0  0  0  0  0  0  0  0
    3.1000    0.6500    0.0000 C   0  0  1  0  0  0  0  0  0  0  0  0
    4.5400    0.1500    0.0000 C   0  0  0  0  0  0  0  0  0  0  0  0
    5.3600    1.3900    0.0000 C   0  0  0  0  0  0  0  0  0  0  0  0
    4.5400    2.5600    0.0000 C   0  0  1  0  0  0  0  0  0  0  0  0
    5.8533    3.2847    0.0000 C   0  0  0  0  0  0  0  0  0  0  0  0
    3.9597    3.9432    0.0000 O   0  0  0  0  0  0  0  0  0  0  0  0
   -2.0428    2.0778    0.0000 O   0  0  0  0  0  0  0  0  0  0  0  0
  2  1  1  1  0  0  0
  2  3  1  0  0  0  0
  3  4  1  0  0  0  0
  4  5  1  0  0  0  0
  5  6  2  0  0  0  0
  6  7  1  0  0  0  0
  7  8  1  0  0  0  0
  4  8  2  0  0  0  0
  8  9  1  0  0  0  0
 10  9  1  1  0  0  0
  2 10  1  0  0  0  0
 10 11  1  0  0  0  0
 11 12  1  0  0  0  0
 13 12  1  6  0  0  0
 13 14  1  0  0  0  0
  2 14  1  0  0  0  0
 14 15  1  1  0  0  0
 15 16  1  0  0  0  0
 16 17  1  0  0  0  0
 17 18  1  1  0  0  0
 17 19  1  0  0  0  0
 13 19  1  0  0  0  0
 19 20  1  1  0  0  0
 20 21  1  0  0  0  0
 21 22  1  0  0  0  0
 17 22  1  0  0  0  0
 22 23  1  6  0  0  0
 22 24  1  1  0  0  0
 25  1  1  0  0  0  0
M  END
> <InChI>
InChI=1S/C21H32N2O2/c1-19-7-5-17-15(16(19)6-8-20(19,2)25)4-3-14-9-18-13(11-22-23-18)10-21(14,17)12-24/h11,14-17,24-25H,3-10,12H2,1-2H3,(H,22,23)/t14-,15-,16-,17-,19-,20-,21+/m0/s1

> <InChIKey>
WEPYCTBFTACORS-MUCQQEEJSA-N

> <SMILES>
C([C@]12CC=3C=NNC3C[C@@H]1CC[C@@H]4[C@@H]2CC[C@@]5(C)[C@H]4CC[C@]5(C)O)O

> <Synonyms>


> <PUBCHEM_CID>


> <Molecular_formula>
C21H32N2O2

> <Major_Isotope_Mass>
344.246378264

> <ALogP>
2.758999999999999

> <Lipinski_Violations>
0

> <Insecticide_Likeness_Violations>
1

> <Post_Em_Herbicide_Likeness_Violations>
1

> <Metabolite_ID>
BTM00007

> <Reaction>
Hydroxylation of methyl carbon adjacent to aliphatic ring

> <Reaction_ID>
BTMR0054

> <Enzyme(s)>
CYP2B6
CYP2C8
CYP2C9
CYP2C19
CYP2D6
CYP3A4

> <Biosystem>
HUMAN

> <Precursor_ID>


> <Precursor_SMILES>
C[C@]12CC=3C=NNC3C[C@@H]1CC[C@@H]4[C@@H]2CC[C@@]5(C)[C@H]4CC[C@]5(C)O

> <Precursor_InChI>
InChI=1S/C21H32N2O/c1-19-11-13-12-22-23-18(13)10-14(19)4-5-15-16(19)6-8-20(2)17(15)7-9-21(20,3)24/h12,14-17,24H,4-11H2,1-3H3,(H,22,23)/t14-,15+,16-,17-,19-,20-,21-/m0/s1

> <Precursor_InChIKey>
LKAJKIOFIWVMDJ-IYRCEVNGSA-N

> <Precursor_ALogP>


> <Precursor_Major_Isotope_Mass>
328.2514

$$$$
BTM00008
  CDK     09122622432D

 25 29  0  0  1  0  0  0  0  0999 V2000
   -0.7425    1.3300    0.0000 C   0  0  0  0  0  0  0  0  0  0  0  0
   -0.7400   -0.1700    0.0000 C   0  0  2  0  0  0  0  0  0  0  0  0
   -2.0300    0.5700    0.0000 C   0  0  0  0  0  0  0  0  0  0  0  0
   -3.3900   -0.1700    0.0000 C   0  0  0  0  0  0  0  0  0  0  0  0
   -4.8300    0.3400    0.0000 C   0  0  0  0  0  0  0  0  0  0  0  0
   -5.6400   -0.9000    0.0000 N   0  0  0  0  0  0  0  0  0  0  0  0
   -4.8300   -2.1100    0.0000 N   0  0  0  0  0  0  0  0  0  0  0  0
   -3.3900   -1.6800    0.0000 C   0  0  0  0  0  0  0  0  0  0  0  0
   -2.0300   -2.3800    0.0000 C   0  0  0  0  0  0  0  0  0  0  0  0
   -0.7400   -1.6800    0.0000 C   0  0  2  0  0  0  0  0  0  0  0  0
    0.5400   -2.3800    0.0000 C   0  0  0  0  0  0  0  0  0  0  0  0
    1.7800   -1.6800    0.0000 C   0  0  0  0  0  0  0  0  0  0  0  0
    1.7800   -0.1700    0.0000 C   0  0  2  0  0  0  0  0  0  0  0  0
    0.5400    0.5700    0.0000 C   0  0  2  0  0  0  0  0  0  0  0  0
    0.5400    2.0900    0.0000 C   0  0  0  0  0  0  0  0  0  0  0  0
    1.7800    2.8700    0.0000 C   0  0  0  0  0  0  0  0  0  0  0  0
    3.1000    2.1300    0.0000 C   0  0  1  0  0  0  0  0  0  0  0  0
    3.2652    3.6209    0.0000 C   0  0  0  0  0  0  0  0  0  0  0  0
    3.1000    0.6500    0.0000 C   0  0  1  0  0  0  0  0  0  0  0  0
    4.5400    0.1500    0.0000 C   0  0  0  0  0  0  0  0  0  0  0  0
    5.3600    1.3900    0.0000 C   0  0  0  0  0  0  0  0  0  0  0  0
    4.5400    2.5600    0.0000 C   0  0  1  0  0  0  0  0  0  0  0  0
    5.8533    3.2847    0.0000 C   0  0  0  0  0  0  0  0  0  0  0  0
    3.9597    3.9432    0.0000 O   0  0  0  0  0  0  0  0  0  0  0  0
    7.1376    2.5098    0.0000 O   0  0  0  0  0  0  0  0  0  0  0  0
  2  1  1  1  0  0  0
  2  3  1  0  0  0  0
  3  4  1  0  0  0  0
  4  5  1  0  0  0  0
  5  6  2  0  0  0  0
  6  7  1  0  0  0  0
  7  8  1  0  0  0  0
  4  8  2  0  0  0  0
  8  9  1  0  0  0  0
 10  9  1  1  0  0  0
  2 10  1  0  0  0  0
 10 11  1  0  0  0  0
 11 12  1  0  0  0  0
 13 12  1  6  0  0  0
 13 14  1  0  0  0  0
  2 14  1  0  0  0  0
 14 15  1  1  0  0  0
 15 16  1  0  0  0  0
 16 17  1  0  0  0  0
 17 18  1  1  0  0  0
 17 19  1  0  0  0  0
 13 19  1  0  0  0  0
 19 20  1  1  0  0  0
 20 21  1  0  0  0  0
 21 22  1  0  0  0  0
 17 22  1  0  0  0  0
 22 23  1  6  0  0  0
 22 24  1  1  0  0  0
 25 23  1  0  0  0  0
M  END
> <InChI>
InChI=1S/C21H32N2O2/c1-19-10-13-11-22-23-18(13)9-14(19)3-4-15-16(19)5-7-20(2)17(15)6-8-21(20,25)12-24/h11,14-17,24-25H,3-10,12H2,1-2H3,(H,22,23)/t14-,15+,16-,17-,19-,20-,21+/m0/s1

> <InChIKey>
CDXHXHXSJRDPLP-GVQHXQKQSA-N

> <SMILES>
C[C@]12CC=3C=NNC3C[C@@H]1CC[C@@H]4[C@@H]2CC[C@@]5(C)[C@H]4CC[C@]5(CO)O

> <Synonyms>


> <PUBCHEM_CID>


> <Molecular_formula>
C21H32N2O2

> <Major_Isotope_Mass>
344.246378264

> <ALogP>
2.9614999999999987

> <Lipinski_Violations>
0

> <Insecticide_Likeness_Violations>
1

> <Post_Em_Herbicide_Likeness_Violations>
1

> <Metabolite_ID>
BTM00008

> <Reaction>
Hydroxylation of methyl carbon adjacent to aliphatic ring

> <Reaction_ID>
BTMR0054

> <Enzyme(s)>
CYP2B6
CYP2C8
CYP2C9
CYP2C19
CYP2D6
CYP3A4

> <Biosystem>
HUMAN

> <Precursor_ID>


> <Precursor_SMILES>
C[C@]12CC=3C=NNC3C[C@@H]1CC[C@@H]4[C@@H]2CC[C@@]5(C)[C@H]4CC[C@]5(C)O

> <Precursor_InChI>
InChI=1S/C21H32N2O/c1-19-11-13-12-22-23-18(13)10-14(19)4-5-15-16(19)6-8-20(2)17(15)7-9-21(20,3)24/h12,14-17,24H,4-11H2,1-3H3,(H,22,23)/t14-,15+,16-,17-,19-,20-,21-/m0/s1

> <Precursor_InChIKey>
LKAJKIOFIWVMDJ-IYRCEVNGSA-N

> <Precursor_ALogP>


> <Precursor_Major_Isotope_Mass>
328.2514

$$$$
BTM00009
  CDK     09122622432D

 25 29  0  0  1  0  0  0  0  0999 V2000
   -0.7425    1.3300    0.0000 C   0  0  0  0  0  0  0  0  0  0  0  0
   -0.7400   -0.1700    0.0000 C   0  0  2  0  0  0  0  0  0  0  0  0
   -2.0300    0.5700    0.0000 C   0  0  0  0  0  0  0  0  0  0  0  0
   -3.3900   -0.1700    0.0000 C   0  0  0  0  0  0  0  0  0  0  0  0
   -4.8300    0.3400    0.0000 C   0  0  0  0  0  0  0  0  0  0  0  0
   -5.6400   -0.9000    0.0000 N   0  0  0  0  0  0  0  0  0  0  0  0
   -4.8300   -2.1100    0.0000 N   0  0  0  0  0  0  0  0  0  0  0  0
   -3.3900   -1.6800    0.0000 C   0  0  0  0  0  0  0  0  0  0  0  0
   -2.0300   -2.3800    0.0000 C   0  0  0  0  0  0  0  0  0  0  0  0
   -0.7400   -1.6800    0.0000 C   0  0  2  0  0  0  0  0  0  0  0  0
    0.5400   -2.3800    0.0000 C   0  0  0  0  0  0  0  0  0  0  0  0
    1.7800   -1.6800    0.0000 C   0  0  0  0  0  0  0  0  0  0  0  0
    1.7800   -0.1700    0.0000 C   0  0  2  0  0  0  0  0  0  0  0  0
    0.5400    0.5700    0.0000 C   0  0  2  0  0  0  0  0  0  0  0  0
    0.5400    2.0900    0.0000 C   0  0  0  0  0  0  0  0  0  0  0  0
    1.7800    2.8700    0.0000 C   0  0  0  0  0  0  0  0  0  0  0  0
    3.1000    2.1300    0.0000 C   0  0  1  0  0  0  0  0  0  0  0  0
    3.2652    3.6209    0.0000 C   0  0  0  0  0  0  0  0  0  0  0  0
    3.1000    0.6500    0.0000 C   0  0  1  0  0  0  0  0  0  0  0  0
    4.5400    0.1500    0.0000 C   0  0  0  0  0  0  0  0  0  0  0  0
    5.3600    1.3900    0.0000 C   0  0  0  0  0  0  0  0  0  0  0  0
    4.5400    2.5600    0.0000 C   0  0  1  0  0  0  0  0  0  0  0  0
    5.8533    3.2847    0.0000 C   0  0  0  0  0  0  0  0  0  0  0  0
    3.9597    3.9432    0.0000 O   0  0  0  0  0  0  0  0  0  0  0  0
    2.0567    4.5094    0.0000 O   0  0  0  0  0  0  0  0  0  0  0  0
  2  1  1  1  0  0  0
  2  3  1  0  0  0  0
  3  4  1  0  0  0  0
  4  5  1  0  0  0  0
  5  6  2  0  0  0  0
  6  7  1  0  0  0  0
  7  8  1  0  0  0  0
  4  8  2  0  0  0  0
  8  9  1  0  0  0  0
 10  9  1  1  0  0  0
  2 10  1  0  0  0  0
 10 11  1  0  0  0  0
 11 12  1  0  0  0  0
 13 12  1  6  0  0  0
 13 14  1  0  0  0  0
  2 14  1  0  0  0  0
 14 15  1  1  0  0  0
 15 16  1  0  0  0  0
 16 17  1  0  0  0  0
 17 18  1  1  0  0  0
 17 19  1  0  0  0  0
 13 19  1  0  0  0  0
 19 20  1  1  0  0  0
 20 21  1  0  0  0  0
 21 22  1  0  0  0  0
 17 22  1  0  0  0  0
 22 23  1  6  0  0  0
 22 24  1  1  0  0  0
 25 18  1  0  0  0  0
M  END
> <InChI>
InChI=1S/C21H32N2O2/c1-19-10-13-11-22-23-18(13)9-14(19)3-4-15-16(19)6-8-21(12-24)17(15)5-7-20(21,2)25/h11,14-17,24-25H,3-10,12H2,1-2H3,(H,22,23)/t14-,15+,16-,17-,19-,20-,21+/m0/s1

> <InChIKey>
RYCJYERIZRVNEP-GVQHXQKQSA-N

> <SMILES>
C[C@]12CC=3C=NNC3C[C@@H]1CC[C@@H]4[C@@H]2CC[C@@]5(CO)[C@H]4CC[C@]5(C)O

> <Synonyms>


> <PUBCHEM_CID>


> <Molecular_formula>
C21H32N2O2

> <Major_Isotope_Mass>
344.246378264

> <ALogP>
2.758999999999999

> <Lipinski_Violations>
1

> <Insecticide_Likeness_Violations>
1

> <Post_Em_Herbicide_Likeness_Violations>
1

> <Metabolite_ID>
BTM00009

> <Reaction>
Hydroxylation of methyl carbon adjacent to aliphatic ring

> <Reaction_ID>
BTMR0054

> <Enzyme(s)>
CYP2B6
CYP2C8
CYP2C9
CYP2C19
CYP2D6
CYP3A4

> <Biosystem>
HUMAN

> <Precursor_ID>


> <Precursor_SMILES>
C[C@]12CC=3C=NNC3C[C@@H]1CC[C@@H]4[C@@H]2CC[C@@]5(C)[C@H]4CC[C@]5(C)O

> <Precursor_InChI>
InChI=1S/C21H32N2O/c1-19-11-13-12-22-23-18(13)10-14(19)4-5-15-16(19)6-8-20(2)17(15)7-9-21(20,3)24/h12,14-17,24H,4-11H2,1-3H3,(H,22,23)/t14-,15+,16-,17-,19-,20-,21-/m0/s1

> <Precursor_InChIKey>
LKAJKIOFIWVMDJ-IYRCEVNGSA-N

> <Precursor_ALogP>


> <Precursor_Major_Isotope_Mass>
328.2514

$$$$
