BTM00001
  CDK     09122622092D

 24 27  0  0  1  0  0  0  0  0999 V2000
    4.9495    3.1491    0.0000 C   0  0  0  0  0  0  0  0  0  0  0  0
    3.6500    2.4000    0.0000 C   0  0  2  0  0  0  0  0  0  0  0  0
    3.0424    3.7714    0.0000 O   0  0  0  0  0  0  0  0  0  0  0  0
    4.5300    1.1900    0.0000 C   0  0  0  0  0  0  0  0  0  0  0  0
    3.6500   -0.0200    0.0000 C   0  0  0  0  0  0  0  0  0  0  0  0
    2.2200    0.4400    0.0000 C   0  0  1  0  0  0  0  0  0  0  0  0
    0.9200   -0.3100    0.0000 C   0  0  2  0  0  0  0  0  0  0  0  0
    0.9200   -1.8100    0.0000 C   0  0  0  0  0  0  0  0  0  0  0  0
   -0.3800   -2.5600    0.0000 C   0  0  0  0  0  0  0  0  0  0  0  0
   -1.6800   -1.8100    0.0000 C   0  0  0  0  0  0  0  0  0  0  0  0
   -2.9800   -2.5600    0.0000 C   0  0  0  0  0  0  0  0  0  0  0  0
   -4.2800   -1.8100    0.0000 C   0  0  0  0  0  0  0  0  0  0  0  0
   -5.5789   -2.5602    0.0000 O   0  0  0  0  0  0  0  0  0  0  0  0
   -4.2800   -0.3100    0.0000 C   0  0  0  0  0  0  0  0  0  0  0  0
   -2.9800    0.4400    0.0000 C   0  0  0  0  0  0  0  0  0  0  0  0
   -1.6800   -0.3100    0.0000 C   0  0  1  0  0  0  0  0  0  0  0  0
   -1.6800    1.1900    0.0000 C   0  0  0  0  0  0  0  0  0  0  0  0
   -0.3800    0.4400    0.0000 C   0  0  2  0  0  0  0  0  0  0  0  0
   -0.3807   -1.0600    0.0000 F   0  0  0  0  0  0  0  0  0  0  0  0
   -0.3800    1.9400    0.0000 C   0  0  0  0  0  5  0  0  0  0  0  0
   -1.6789    2.6902    0.0000 O   0  0  0  0  0  0  0  0  0  0  0  0
    0.9200    2.6900    0.0000 C   0  0  0  0  0  0  0  0  0  0  0  0
    2.2200    1.9400    0.0000 C   0  0  2  0  0  0  0  0  0  0  0  0
    3.2186    0.8207    0.0000 C   0  0  0  0  0  0  0  0  0  0  0  0
  2  1  1  6  0  0  0
  2  3  1  1  0  0  0
  2  4  1  0  0  0  0
  4  5  1  0  0  0  0
  6  5  1  1  0  0  0
  6  7  1  0  0  0  0
  7  8  1  6  0  0  0
  8  9  1  0  0  0  0
  9 10  1  0  0  0  0
 10 11  2  0  0  0  0
 11 12  1  0  0  0  0
 12 13  2  0  0  0  0
 12 14  1  0  0  0  0
 14 15  1  0  0  0  0
 15 16  1  0  0  0  0
 10 16  1  0  0  0  0
 16 17  1  1  0  0  0
 16 18  1  0  0  0  0
  7 18  1  0  0  0  0
 18 19  1  6  0  0  0
 18 20  1  0  0  0  0
 20 21  2  0  0  0  0
 20 22  1  0  0  0  0
 22 23  1  0  0  0  0
  6 23  1  0  0  0  0
  2 23  1  0  0  0  0
 23 24  1  1  0  0  0
M  END
> <InChI>
InChI=1S/C20H28FO3/c1-17-8-6-13(22)10-12(17)4-5-15-14-7-9-19(3,24)18(14,2)11-16(23)20(15,17)21/h10,14-16,24H,4-9,11H2,1-3H3/t14-,15-,17-,18-,19-,20-/m0/s1

> <InChIKey>
DCYYDZMYBQRTFL-MWTXUKJESA-N

> <SMILES>
C[C@]1(O)CC[C@H]2[C@@H]3CCC4=CC(=O)CC[C@]4(C)[C@@]3(F)[CH](=O)C[C@@]21C

> <Synonyms>


> <PUBCHEM_CID>


> <Molecular_formula>
C20H28FO3

> <Major_Isotope_Mass>
335.20224797599997

> <ALogP>
2.698699999999997

> <Lipinski_Violations>
0

> <Insecticide_Likeness_Violations>
0

> <Post_Em_Herbicide_Likeness_Violations>
0

> <Metabolite_ID>
BTM00001

> <Reaction>
Dehydrogenation of 11-beta-hydroxysteroid

> <Reaction_ID>
BTMR0364

> <Enzyme(s)>
EC 1.1.1.146

> <Biosystem>
HUMAN

> <Precursor_ID>


> <Precursor_SMILES>
C[C@]1(O)CC[C@H]2[C@@H]3CCC4=CC(=O)CC[C@]4(C)[C@@]3(F)[C@@H](O)C[C@@]21C

> <Precursor_InChI>
InChI=1S/C20H29FO3/c1-17-8-6-13(22)10-12(17)4-5-15-14-7-9-19(3,24)18(14,2)11-16(23)20(15,17)21/h10,14-16,23-24H,4-9,11H2,1-3H3/t14-,15-,16-,17-,18-,19-,20-/m0/s1

> <Precursor_InChIKey>
YLRFCQOZQXIBAB-RBZZARIASA-N

> <Precursor_ALogP>


> <Precursor_Major_Isotope_Mass>
336.2100

$$$$
BTM00002
  CDK     09122622092D

 24 27  0  0  1  0  0  0  0  0999 V2000
    4.9495    3.1491    0.0000 C   0  0  0  0  0  0  0  0  0  0  0  0
    3.6500    2.4000    0.0000 C   0  0  2  0  0  0  0  0  0  0  0  0
    3.0424    3.7714    0.0000 O   0  0  0  0  0  0  0  0  0  0  0  0
    4.5300    1.1900    0.0000 C   0  0  0  0  0  0  0  0  0  0  0  0
    3.6500   -0.0200    0.0000 C   0  0  0  0  0  0  0  0  0  0  0  0
    2.2200    0.4400    0.0000 C   0  0  1  0  0  0  0  0  0  0  0  0
    0.9200   -0.3100    0.0000 C   0  0  2  0  0  0  0  0  0  0  0  0
    0.9200   -1.8100    0.0000 C   0  0  0  0  0  0  0  0  0  0  0  0
   -0.3800   -2.5600    0.0000 C   0  0  0  0  0  0  0  0  0  0  0  0
   -1.6800   -1.8100    0.0000 C   0  0  0  0  0  0  0  0  0  0  0  0
   -2.9800   -2.5600    0.0000 C   0  0  0  0  0  0  0  0  0  0  0  0
   -4.2800   -1.8100    0.0000 C   0  0  0  0  0  0  0  0  0  0  0  0
   -5.5789   -2.5602    0.0000 O   0  0  0  0  0  0  0  0  0  0  0  0
   -4.2800   -0.3100    0.0000 C   0  0  0  0  0  0  0  0  0  0  0  0
   -2.9800    0.4400    0.0000 C   0  0  0  0  0  0  0  0  0  0  0  0
   -1.6800   -0.3100    0.0000 C   0  0  1  0  0  0  0  0  0  0  0  0
   -1.6800    1.1900    0.0000 C   0  0  0  0  0  0  0  0  0  0  0  0
   -0.3800    0.4400    0.0000 C   0  0  2  0  0  0  0  0  0  0  0  0
   -0.3807   -1.0600    0.0000 F   0  0  0  0  0  0  0  0  0  0  0  0
   -0.3800    1.9400    0.0000 C   0  0  1  0  0  0  0  0  0  0  0  0
   -1.6789    2.6902    0.0000 O   0  0  0  0  0  0  0  0  0  0  0  0
    0.9200    2.6900    0.0000 C   0  0  0  0  0  0  0  0  0  0  0  0
    2.2200    1.9400    0.0000 C   0  0  2  0  0  0  0  0  0  0  0  0
    3.2186    0.8207    0.0000 C   0  0  0  0  0  0  0  0  0  0  0  0
  2  1  1  6  0  0  0
  2  3  1  1  0  0  0
  2  4  1  0  0  0  0
  4  5  1  0  0  0  0
  6  5  1  1  0  0  0
  6  7  1  0  0  0  0
  7  8  1  6  0  0  0
  8  9  1  0  0  0  0
  9 10  1  0  0  0  0
 10 11  2  0  0  0  0
 11 12  1  0  0  0  0
 12 13  1  0  0  0  0
 12 14  1  0  0  0  0
 14 15  1  0  0  0  0
 15 16  1  0  0  0  0
 10 16  1  0  0  0  0
 16 17  1  1  0  0  0
 16 18  1  0  0  0  0
  7 18  1  0  0  0  0
 18 19  1  6  0  0  0
 18 20  1  0  0  0  0
 20 21  1  1  0  0  0
 20 22  1  0  0  0  0
 22 23  1  0  0  0  0
  6 23  1  0  0  0  0
  2 23  1  0  0  0  0
 23 24  1  1  0  0  0
M  END
> <InChI>
InChI=1S/C20H31FO3/c1-17-8-6-13(22)10-12(17)4-5-15-14-7-9-19(3,24)18(14,2)11-16(23)20(15,17)21/h10,13-16,22-24H,4-9,11H2,1-3H3/t13?,14-,15-,16-,17-,18-,19-,20-/m0/s1

> <InChIKey>
PBKCZWKHNIQOEO-KHEQFHRJSA-N

> <SMILES>
C[C@]1(O)CC[C@H]2[C@@H]3CCC4=CC(O)CC[C@]4(C)[C@@]3(F)[C@@H](O)C[C@@]21C

> <Synonyms>


> <PUBCHEM_CID>


> <Molecular_formula>
C20H31FO3

> <Major_Isotope_Mass>
338.225723072

> <ALogP>
2.5371999999999986

> <Lipinski_Violations>
0

> <Insecticide_Likeness_Violations>
1

> <Post_Em_Herbicide_Likeness_Violations>
1

> <Metabolite_ID>
BTM00002

> <Reaction>
Reduction of carbonyl

> <Reaction_ID>
BTMR0368

> <Enzyme(s)>
EC 1.1.1.184

> <Biosystem>
HUMAN

> <Precursor_ID>


> <Precursor_SMILES>
C[C@]1(O)CC[C@H]2[C@@H]3CCC4=CC(=O)CC[C@]4(C)[C@@]3(F)[C@@H](O)C[C@@]21C

> <Precursor_InChI>
InChI=1S/C20H29FO3/c1-17-8-6-13(22)10-12(17)4-5-15-14-7-9-19(3,24)18(14,2)11-16(23)20(15,17)21/h10,14-16,23-24H,4-9,11H2,1-3H3/t14-,15-,16-,17-,18-,19-,20-/m0/s1

> <Precursor_InChIKey>
YLRFCQOZQXIBAB-RBZZARIASA-N

> <Precursor_ALogP>


> <Precursor_Major_Isotope_Mass>
336.2100

$$$$
BTM00003
  CDK     09122622092D

 36 40  0  0  1  0  0  0  0  0999 V2000
    5.0502    2.2903    0.0000 C   0  0  0  0  0  0  0  0  0  0  0  0
    3.7560    1.5318    0.0000 C   0  0  2  0  0  0  0  0  0  0  0  0
    2.9475    3.3392    0.0000 O   0  0  0  0  0  0  0  0  0  0  0  0
    4.6560    0.3218    0.0000 C   0  0  0  0  0  0  0  0  0  0  0  0
    3.7560   -0.8782    0.0000 C   0  0  0  0  0  0  0  0  0  0  0  0
    2.3260   -0.4282    0.0000 C   0  0  1  0  0  0  0  0  0  0  0  0
    1.0460   -1.1782    0.0000 C   0  0  2  0  0  0  0  0  0  0  0  0
    1.0460   -2.6882    0.0000 C   0  0  0  0  0  0  0  0  0  0  0  0
   -0.2340   -3.4382    0.0000 C   0  0  0  0  0  0  0  0  0  0  0  0
   -1.5140   -2.6882    0.0000 C   0  0  0  0  0  0  0  0  0  0  0  0
   -2.8740   -3.4382    0.0000 C   0  0  0  0  0  0  0  0  0  0  0  0
   -4.1540   -2.6882    0.0000 C   0  0  0  0  0  0  0  0  0  0  0  0
   -5.4554   -3.4340    0.0000 O   0  0  0  0  0  0  0  0  0  0  0  0
   -4.1540   -1.1782    0.0000 C   0  0  0  0  0  0  0  0  0  0  0  0
   -2.8740   -0.4282    0.0000 C   0  0  0  0  0  0  0  0  0  0  0  0
   -1.5140   -1.1782    0.0000 C   0  0  1  0  0  0  0  0  0  0  0  0
   -1.5335    0.3217    0.0000 C   0  0  0  0  0  0  0  0  0  0  0  0
   -0.2340   -0.4282    0.0000 C   0  0  2  0  0  0  0  0  0  0  0  0
   -0.2196   -1.9281    0.0000 F   0  0  0  0  0  0  0  0  0  0  0  0
   -0.2340    1.0718    0.0000 C   0  0  1  0  0  0  0  0  0  0  0  0
   -1.5376    1.8139    0.0000 O   0  0  0  0  0  0  0  0  0  0  0  0
    1.0460    1.8318    0.0000 C   0  0  0  0  0  0  0  0  0  0  0  0
    2.3260    1.0718    0.0000 C   0  0  2  0  0  0  0  0  0  0  0  0
    2.4941    2.5624    0.0000 C   0  0  0  0  0  0  0  0  0  0  0  0
    1.7318    6.0767    0.0000 O   0  0  0  0  0  0  0  0  0  0  0  0
    3.2232    5.9165    0.0000 C   0  0  0  0  0  0  0  0  0  0  0  0
    4.1220    7.1462    0.0000 C   0  0  0  0  0  0  0  0  0  0  0  0
    3.5188    8.5195    0.0000 O   0  0  0  0  0  0  0  0  0  0  0  0
    5.6185    6.9782    0.0000 C   0  0  0  0  0  0  0  0  0  0  0  0
    6.5055    8.1878    0.0000 O   0  0  0  0  0  0  0  0  0  0  0  0
    6.2222    5.6160    0.0000 C   0  0  0  0  0  0  0  0  0  0  0  0
    5.3377    4.4035    0.0000 O   0  0  0  0  0  0  0  0  0  0  0  0
    3.8270    4.5543    0.0000 C   0  0  0  0  0  0  0  0  0  0  0  0
    7.7137    5.4564    0.0000 C   0  0  0  0  0  0  0  0  0  0  0  0
    8.5976    6.6683    0.0000 O   0  0  0  0  0  0  0  0  0  0  0  0
    8.3213    4.0850    0.0000 O   0  0  0  0  0  0  0  0  0  0  0  0
  2  1  1  6  0  0  0
  2  3  1  1  0  0  0
  2  4  1  0  0  0  0
  4  5  1  0  0  0  0
  6  5  1  1  0  0  0
  6  7  1  0  0  0  0
  7  8  1  6  0  0  0
  8  9  1  0  0  0  0
  9 10  1  0  0  0  0
 10 11  2  0  0  0  0
 11 12  1  0  0  0  0
 12 13  2  0  0  0  0
 12 14  1  0  0  0  0
 14 15  1  0  0  0  0
 15 16  1  0  0  0  0
 10 16  1  0  0  0  0
 16 17  1  1  0  0  0
 16 18  1  0  0  0  0
  7 18  1  0  0  0  0
 18 19  1  6  0  0  0
 18 20  1  0  0  0  0
 20 21  1  1  0  0  0
 20 22  1  0  0  0  0
 22 23  1  0  0  0  0
  6 23  1  0  0  0  0
  2 23  1  0  0  0  0
 23 24  1  1  0  0  0
 25 26  1  0  0  0  0
 26 27  1  0  0  0  0
 27 28  1  0  0  0  0
 27 29  1  0  0  0  0
 29 30  1  0  0  0  0
 29 31  1  0  0  0  0
 31 32  1  0  0  0  0
 32 33  1  0  0  0  0
 26 33  1  0  0  0  0
 33  3  1  0  0  0  0
 31 34  1  0  0  0  0
 34 35  1  0  0  0  0
 34 36  2  0  0  0  0
M  END
> <InChI>
InChI=1S/C26H37FO9/c1-23-8-6-13(28)10-12(23)4-5-15-14-7-9-25(3,24(14,2)11-16(29)26(15,23)27)36-22-19(32)17(30)18(31)20(35-22)21(33)34/h10,14-20,22,29-32H,4-9,11H2,1-3H3,(H,33,34)/t14-,15-,16-,17?,18?,19?,20?,22?,23-,24-,25-,26-/m0/s1

> <InChIKey>
AUXRVZQWGVDHDA-BRVBTXTOSA-N

> <SMILES>
C[C@]1(OC2OC(C(C(C2O)O)O)C(O)=O)CC[C@H]3[C@@H]4CCC5=CC(=O)CC[C@]5(C)[C@@]4(F)[C@@H](O)C[C@@]31C

> <Synonyms>


> <PUBCHEM_CID>


> <Molecular_formula>
C26H37FO9

> <Major_Isotope_Mass>
512.242160984

> <ALogP>
0.9596999999999949

> <Lipinski_Violations>
1

> <Insecticide_Likeness_Violations>
1

> <Post_Em_Herbicide_Likeness_Violations>
1

> <Metabolite_ID>
BTM00003

> <Reaction>
17-OH-Glucuronidation of sterol

> <Reaction_ID>
BTMR0163

> <Enzyme(s)>
EC 2.4.1.17

> <Biosystem>
HUMAN

> <Precursor_ID>


> <Precursor_SMILES>
C[C@]1(O)CC[C@H]2[C@@H]3CCC4=CC(=O)CC[C@]4(C)[C@@]3(F)[C@@H](O)C[C@@]21C

> <Precursor_InChI>
InChI=1S/C20H29FO3/c1-17-8-6-13(22)10-12(17)4-5-15-14-7-9-19(3,24)18(14,2)11-16(23)20(15,17)21/h10,14-16,23-24H,4-9,11H2,1-3H3/t14-,15-,16-,17-,18-,19-,20-/m0/s1

> <Precursor_InChIKey>
YLRFCQOZQXIBAB-RBZZARIASA-N

> <Precursor_ALogP>


> <Precursor_Major_Isotope_Mass>
336.2100

$$$$
BTM00004
  CDK     09122622092D

 25 28  0  0  1  0  0  0  0  0999 V2000
    4.9495    3.1491    0.0000 C   0  0  0  0  0  0  0  0  0  0  0  0
    3.6500    2.4000    0.0000 C   0  0  2  0  0  0  0  0  0  0  0  0
    3.0424    3.7714    0.0000 O   0  0  0  0  0  0  0  0  0  0  0  0
    4.5300    1.1900    0.0000 C   0  0  0  0  0  0  0  0  0  0  0  0
    3.6500   -0.0200    0.0000 C   0  0  0  0  0  0  0  0  0  0  0  0
    2.2200    0.4400    0.0000 C   0  0  1  0  0  0  0  0  0  0  0  0
    0.9200   -0.3100    0.0000 C   0  0  2  0  0  0  0  0  0  0  0  0
    0.9200   -1.8100    0.0000 C   0  0  0  0  0  0  0  0  0  0  0  0
   -0.3800   -2.5600    0.0000 C   0  0  0  0  0  0  0  0  0  0  0  0
   -1.6800   -1.8100    0.0000 C   0  0  0  0  0  0  0  0  0  0  0  0
   -2.9800   -2.5600    0.0000 C   0  0  0  0  0  0  0  0  0  0  0  0
   -4.2800   -1.8100    0.0000 C   0  0  0  0  0  0  0  0  0  0  0  0
   -5.5789   -2.5602    0.0000 O   0  0  0  0  0  0  0  0  0  0  0  0
   -4.2800   -0.3100    0.0000 C   0  0  0  0  0  0  0  0  0  0  0  0
   -2.9800    0.4400    0.0000 C   0  0  0  0  0  0  0  0  0  0  0  0
   -1.6800   -0.3100    0.0000 C   0  0  1  0  0  0  0  0  0  0  0  0
   -1.6800    1.1900    0.0000 C   0  0  0  0  0  0  0  0  0  0  0  0
   -0.3800    0.4400    0.0000 C   0  0  2  0  0  0  0  0  0  0  0  0
   -0.3807   -1.0600    0.0000 F   0  0  0  0  0  0  0  0  0  0  0  0
   -0.3800    1.9400    0.0000 C   0  0  1  0  0  0  0  0  0  0  0  0
   -1.6789    2.6902    0.0000 O   0  0  0  0  0  0  0  0  0  0  0  0
    0.9200    2.6900    0.0000 C   0  0  0  0  0  0  0  0  0  0  0  0
    2.2200    1.9400    0.0000 C   0  0  2  0  0  0  0  0  0  0  0  0
    3.2186    0.8207    0.0000 C   0  0  0  0  0  0  0  0  0  0  0  0
    6.0300    1.1900    0.0000 O   0  0  0  0  0  0  0  0  0  0  0  0
  2  1  1  6  0  0  0
  2  3  1  1  0  0  0
  2  4  1  0  0  0  0
  4  5  1  0  0  0  0
  6  5  1  1  0  0  0
  6  7  1  0  0  0  0
  7  8  1  6  0  0  0
  8  9  1  0  0  0  0
  9 10  1  0  0  0  0
 10 11  2  0  0  0  0
 11 12  1  0  0  0  0
 12 13  2  0  0  0  0
 12 14  1  0  0  0  0
 14 15  1  0  0  0  0
 15 16  1  0  0  0  0
 10 16  1  0  0  0  0
 16 17  1  1  0  0  0
 16 18  1  0  0  0  0
  7 18  1  0  0  0  0
 18 19  1  6  0  0  0
 18 20  1  0  0  0  0
 20 21  1  1  0  0  0
 20 22  1  0  0  0  0
 22 23  1  0  0  0  0
  6 23  1  0  0  0  0
  2 23  1  0  0  0  0
 23 24  1  1  0  0  0
 25  4  1  0  0  0  0
M  END
> <InChI>
InChI=1S/C20H29FO4/c1-17-7-6-12(22)8-11(17)4-5-13-14-9-15(23)19(3,25)18(14,2)10-16(24)20(13,17)21/h8,13-16,23-25H,4-7,9-10H2,1-3H3/t13-,14-,15?,16-,17-,18-,19-,20-/m0/s1

> <InChIKey>
WEUSSQIUWAHYPV-WANHVNJYSA-N

> <SMILES>
C[C@]1(O)C(C[C@H]2[C@@H]3CCC4=CC(=O)CC[C@]4(C)[C@@]3(F)[C@@H](O)C[C@@]21C)O

> <Synonyms>


> <PUBCHEM_CID>


> <Molecular_formula>
C20H29FO4

> <Major_Isotope_Mass>
352.204987628

> <ALogP>
1.530799999999997

> <Lipinski_Violations>
0

> <Insecticide_Likeness_Violations>
1

> <Post_Em_Herbicide_Likeness_Violations>
1

> <Metabolite_ID>
BTM00004

> <Reaction>
16-Hydroxylation of sterol

> <Reaction_ID>
BTMR0407

> <Enzyme(s)>
CYP1A2
CYP2A6
CYP2B6
CYP2C8
CYP2C9
CYP2C19
CYP2D6
CYP2E1
CYP3A4

> <Biosystem>
HUMAN

> <Precursor_ID>


> <Precursor_SMILES>
C[C@]1(O)CC[C@H]2[C@@H]3CCC4=CC(=O)CC[C@]4(C)[C@@]3(F)[C@@H](O)C[C@@]21C

> <Precursor_InChI>
InChI=1S/C20H29FO3/c1-17-8-6-13(22)10-12(17)4-5-15-14-7-9-19(3,24)18(14,2)11-16(23)20(15,17)21/h10,14-16,23-24H,4-9,11H2,1-3H3/t14-,15-,16-,17-,18-,19-,20-/m0/s1

> <Precursor_InChIKey>
YLRFCQOZQXIBAB-RBZZARIASA-N

> <Precursor_ALogP>


> <Precursor_Major_Isotope_Mass>
336.2100

$$$$
BTM00005
  CDK     09122622092D

 25 28  0  0  1  0  0  0  0  0999 V2000
    4.9495    3.1491    0.0000 C   0  0  0  0  0  0  0  0  0  0  0  0
    3.6500    2.4000    0.0000 C   0  0  2  0  0  0  0  0  0  0  0  0
    3.0424    3.7714    0.0000 O   0  0  0  0  0  0  0  0  0  0  0  0
    4.5300    1.1900    0.0000 C   0  0  0  0  0  0  0  0  0  0  0  0
    3.6500   -0.0200    0.0000 C   0  0  0  0  0  0  0  0  0  0  0  0
    2.2200    0.4400    0.0000 C   0  0  1  0  0  0  0  0  0  0  0  0
    0.9200   -0.3100    0.0000 C   0  0  2  0  0  0  0  0  0  0  0  0
    0.9200   -1.8100    0.0000 C   0  0  0  0  0  0  0  0  0  0  0  0
   -0.3800   -2.5600    0.0000 C   0  0  0  0  0  0  0  0  0  0  0  0
   -1.6800   -1.8100    0.0000 C   0  0  0  0  0  0  0  0  0  0  0  0
   -2.9800   -2.5600    0.0000 C   0  0  0  0  0  0  0  0  0  0  0  0
   -4.2800   -1.8100    0.0000 C   0  0  0  0  0  0  0  0  0  0  0  0
   -5.5789   -2.5602    0.0000 O   0  0  0  0  0  0  0  0  0  0  0  0
   -4.2800   -0.3100    0.0000 C   0  0  0  0  0  0  0  0  0  0  0  0
   -2.9800    0.4400    0.0000 C   0  0  0  0  0  0  0  0  0  0  0  0
   -1.6800   -0.3100    0.0000 C   0  0  1  0  0  0  0  0  0  0  0  0
   -1.6800    1.1900    0.0000 C   0  0  0  0  0  0  0  0  0  0  0  0
   -0.3800    0.4400    0.0000 C   0  0  2  0  0  0  0  0  0  0  0  0
   -0.3807   -1.0600    0.0000 F   0  0  0  0  0  0  0  0  0  0  0  0
   -0.3800    1.9400    0.0000 C   0  0  1  0  0  0  0  0  0  0  0  0
   -1.6789    2.6902    0.0000 O   0  0  0  0  0  0  0  0  0  0  0  0
    0.9200    2.6900    0.0000 C   0  0  0  0  0  0  0  0  0  0  0  0
    2.2200    1.9400    0.0000 C   0  0  2  0  0  0  0  0  0  0  0  0
    3.2186    0.8207    0.0000 C   0  0  0  0  0  0  0  0  0  0  0  0
   -5.5789    0.4402    0.0000 O   0  0  0  0  0  0  0  0  0  0  0  0
  2  1  1  6  0  0  0
  2  3  1  1  0  0  0
  2  4  1  0  0  0  0
  4  5  1  0  0  0  0
  6  5  1  1  0  0  0
  6  7  1  0  0  0  0
  7  8  1  6  0  0  0
  8  9  1  0  0  0  0
  9 10  1  0  0  0  0
 10 11  2  0  0  0  0
 11 12  1  0  0  0  0
 12 13  2  0  0  0  0
 12 14  1  0  0  0  0
 14 15  1  0  0  0  0
 15 16  1  0  0  0  0
 10 16  1  0  0  0  0
 16 17  1  1  0  0  0
 16 18  1  0  0  0  0
  7 18  1  0  0  0  0
 18 19  1  6  0  0  0
 18 20  1  0  0  0  0
 20 21  1  1  0  0  0
 20 22  1  0  0  0  0
 22 23  1  0  0  0  0
  6 23  1  0  0  0  0
  2 23  1  0  0  0  0
 23 24  1  1  0  0  0
 25 14  1  0  0  0  0
M  END
> <InChI>
InChI=1S/C20H29FO4/c1-17-9-15(23)14(22)8-11(17)4-5-13-12-6-7-19(3,25)18(12,2)10-16(24)20(13,17)21/h8,12-13,15-16,23-25H,4-7,9-10H2,1-3H3/t12-,13-,15?,16-,17-,18-,19-,20-/m0/s1

> <InChIKey>
RAGJANYHZQVGOI-CUSNFQPJSA-N

> <SMILES>
C[C@]1(O)CC[C@H]2[C@@H]3CCC4=CC(=O)C(C[C@]4(C)[C@@]3(F)[C@@H](O)C[C@@]21C)O

> <Synonyms>


> <PUBCHEM_CID>


> <Molecular_formula>
C20H29FO4

> <Major_Isotope_Mass>
352.204987628

> <ALogP>
1.8171999999999966

> <Lipinski_Violations>
0

> <Insecticide_Likeness_Violations>
1

> <Post_Em_Herbicide_Likeness_Violations>
1

> <Metabolite_ID>
BTM00005

> <Reaction>
2-Hydroxylation of sterol

> <Reaction_ID>
BTMR0398

> <Enzyme(s)>
CYP1A2
CYP2C19
CYP3A4

> <Biosystem>
HUMAN

> <Precursor_ID>


> <Precursor_SMILES>
C[C@]1(O)CC[C@H]2[C@@H]3CCC4=CC(=O)CC[C@]4(C)[C@@]3(F)[C@@H](O)C[C@@]21C

> <Precursor_InChI>
InChI=1S/C20H29FO3/c1-17-8-6-13(22)10-12(17)4-5-15-14-7-9-19(3,24)18(14,2)11-16(23)20(15,17)21/h10,14-16,23-24H,4-9,11H2,1-3H3/t14-,15-,16-,17-,18-,19-,20-/m0/s1

> <Precursor_InChIKey>
YLRFCQOZQXIBAB-RBZZARIASA-N

> <Precursor_ALogP>


> <Precursor_Major_Isotope_Mass>
336.2100

$$$$
BTM00006
  CDK     09122622092D

 25 28  0  0  1  0  0  0  0  0999 V2000
    4.9495    3.1491    0.0000 C   0  0  0  0  0  0  0  0  0  0  0  0
    3.6500    2.4000    0.0000 C   0  0  2  0  0  0  0  0  0  0  0  0
    3.0424    3.7714    0.0000 O   0  0  0  0  0  0  0  0  0  0  0  0
    4.5300    1.1900    0.0000 C   0  0  0  0  0  0  0  0  0  0  0  0
    3.6500   -0.0200    0.0000 C   0  0  0  0  0  0  0  0  0  0  0  0
    2.2200    0.4400    0.0000 C   0  0  1  0  0  0  0  0  0  0  0  0
    0.9200   -0.3100    0.0000 C   0  0  2  0  0  0  0  0  0  0  0  0
    0.9200   -1.8100    0.0000 C   0  0  0  0  0  0  0  0  0  0  0  0
   -0.3800   -2.5600    0.0000 C   0  0  0  0  0  0  0  0  0  0  0  0
   -1.6800   -1.8100    0.0000 C   0  0  0  0  0  0  0  0  0  0  0  0
   -2.9800   -2.5600    0.0000 C   0  0  0  0  0  0  0  0  0  0  0  0
   -4.2800   -1.8100    0.0000 C   0  0  0  0  0  0  0  0  0  0  0  0
   -5.5789   -2.5602    0.0000 O   0  0  0  0  0  0  0  0  0  0  0  0
   -4.2800   -0.3100    0.0000 C   0  0  0  0  0  0  0  0  0  0  0  0
   -2.9800    0.4400    0.0000 C   0  0  0  0  0  0  0  0  0  0  0  0
   -1.6800   -0.3100    0.0000 C   0  0  1  0  0  0  0  0  0  0  0  0
   -1.6800    1.1900    0.0000 C   0  0  0  0  0  0  0  0  0  0  0  0
   -0.3800    0.4400    0.0000 C   0  0  2  0  0  0  0  0  0  0  0  0
   -0.3807   -1.0600    0.0000 F   0  0  0  0  0  0  0  0  0  0  0  0
   -0.3800    1.9400    0.0000 C   0  0  1  0  0  0  0  0  0  0  0  0
   -1.6789    2.6902    0.0000 O   0  0  0  0  0  0  0  0  0  0  0  0
    0.9200    2.6900    0.0000 C   0  0  0  0  0  0  0  0  0  0  0  0
    2.2200    1.9400    0.0000 C   0  0  2  0  0  0  0  0  0  0  0  0
    3.2186    0.8207    0.0000 C   0  0  0  0  0  0  0  0  0  0  0  0
   -2.9800   -4.0600    0.0000 O   0  0  0  0  0  0  0  0  0  0  0  0
  2  1  1  6  0  0  0
  2  3  1  1  0  0  0
  2  4  1  0  0  0  0
  4  5  1  0  0  0  0
  6  5  1  1  0  0  0
  6  7  1  0  0  0  0
  7  8  1  6  0  0  0
  8  9  1  0  0  0  0
  9 10  1  0  0  0  0
 10 11  2  0  0  0  0
 11 12  1  0  0  0  0
 12 13  2  0  0  0  0
 12 14  1  0  0  0  0
 14 15  1  0  0  0  0
 15 16  1  0  0  0  0
 10 16  1  0  0  0  0
 16 17  1  1  0  0  0
 16 18  1  0  0  0  0
  7 18  1  0  0  0  0
 18 19  1  6  0  0  0
 18 20  1  0  0  0  0
 20 21  1  1  0  0  0
 20 22  1  0  0  0  0
 22 23  1  0  0  0  0
  6 23  1  0  0  0  0
  2 23  1  0  0  0  0
 23 24  1  1  0  0  0
 25 11  1  0  0  0  0
M  END
> <InChI>
InChI=1S/C20H29FO4/c1-17-8-7-14(22)16(24)13(17)5-4-12-11-6-9-19(3,25)18(11,2)10-15(23)20(12,17)21/h11-12,15,23-25H,4-10H2,1-3H3/t11-,12-,15-,17-,18-,19-,20-/m0/s1

> <InChIKey>
LCYRUVSVDYNYTK-RZLIQYGCSA-N

> <SMILES>
C[C@]1(O)CC[C@H]2[C@@H]3CCC4=C(C(=O)CC[C@]4(C)[C@@]3(F)[C@@H](O)C[C@@]21C)O

> <Synonyms>


> <PUBCHEM_CID>


> <Molecular_formula>
C20H29FO4

> <Major_Isotope_Mass>
352.204987628

> <ALogP>
1.934599999999998

> <Lipinski_Violations>
0

> <Insecticide_Likeness_Violations>
1

> <Post_Em_Herbicide_Likeness_Violations>
1

> <Metabolite_ID>
BTM00006

> <Reaction>
4-Hydroxylation of sterol

> <Reaction_ID>
BTMR0400

> <Enzyme(s)>
CYP1A2
CYP3A4

> <Biosystem>
HUMAN

> <Precursor_ID>


> <Precursor_SMILES>
C[C@]1(O)CC[C@H]2[C@@H]3CCC4=CC(=O)CC[C@]4(C)[C@@]3(F)[C@@H](O)C[C@@]21C

> <Precursor_InChI>
InChI=1S/C20H29FO3/c1-17-8-6-13(22)10-12(17)4-5-15-14-7-9-19(3,24)18(14,2)11-16(23)20(15,17)21/h10,14-16,23-24H,4-9,11H2,1-3H3/t14-,15-,16-,17-,18-,19-,20-/m0/s1

> <Precursor_InChIKey>
YLRFCQOZQXIBAB-RBZZARIASA-N

> <Precursor_ALogP>


> <Precursor_Major_Isotope_Mass>
336.2100

$$$$
BTM00007
  CDK     09122622092D

 24 27  0  0  1  0  0  0  0  0999 V2000
    4.9495    3.1491    0.0000 C   0  0  0  0  0  0  0  0  0  0  0  0
    3.6500    2.4000    0.0000 C   0  0  2  0  0  0  0  0  0  0  0  0
    3.0424    3.7714    0.0000 O   0  0  0  0  0  0  0  0  0  0  0  0
    4.5300    1.1900    0.0000 C   0  0  0  0  0  0  0  0  0  0  0  0
    3.6500   -0.0200    0.0000 C   0  0  0  0  0  0  0  0  0  0  0  0
    2.2200    0.4400    0.0000 C   0  0  1  0  0  0  0  0  0  0  0  0
    0.9200   -0.3100    0.0000 C   0  0  2  0  0  0  0  0  0  0  0  0
    0.9200   -1.8100    0.0000 C   0  0  0  0  0  0  0  0  0  0  0  0
   -0.3800   -2.5600    0.0000 C   0  0  0  0  0  0  0  0  0  0  0  0
   -1.6800   -1.8100    0.0000 C   0  0  0  0  0  0  0  0  0  0  0  0
   -2.9800   -2.5600    0.0000 C   0  0  0  0  0  0  0  0  0  0  0  0
   -4.2800   -1.8100    0.0000 C   0  0  0  0  0  0  0  0  0  0  0  0
   -5.5789   -2.5602    0.0000 O   0  0  0  0  0  0  0  0  0  0  0  0
   -4.2800   -0.3100    0.0000 C   0  0  0  0  0  0  0  0  0  0  0  0
   -2.9800    0.4400    0.0000 C   0  0  0  0  0  0  0  0  0  0  0  0
   -1.6800   -0.3100    0.0000 C   0  0  1  0  0  0  0  0  0  0  0  0
   -1.6800    1.1900    0.0000 C   0  0  0  0  0  0  0  0  0  0  0  0
   -0.3800    0.4400    0.0000 C   0  0  2  0  0  0  0  0  0  0  0  0
   -0.3807   -1.0600    0.0000 F   0  0  0  0  0  0  0  0  0  0  0  0
   -0.3800    1.9400    0.0000 C   0  0  0  0  0  0  0  0  0  0  0  0
   -1.6789    2.6902    0.0000 O   0  0  0  0  0  0  0  0  0  0  0  0
    0.9200    2.6900    0.0000 C   0  0  0  0  0  0  0  0  0  0  0  0
    2.2200    1.9400    0.0000 C   0  0  2  0  0  0  0  0  0  0  0  0
    3.2186    0.8207    0.0000 C   0  0  0  0  0  0  0  0  0  0  0  0
  2  1  1  6  0  0  0
  2  3  1  1  0  0  0
  2  4  1  0  0  0  0
  4  5  1  0  0  0  0
  6  5  1  1  0  0  0
  6  7  1  0  0  0  0
  7  8  1  6  0  0  0
  8  9  1  0  0  0  0
  9 10  1  0  0  0  0
 10 11  2  0  0  0  0
 11 12  1  0  0  0  0
 12 13  2  0  0  0  0
 12 14  1  0  0  0  0
 14 15  1  0  0  0  0
 15 16  1  0  0  0  0
 10 16  1  0  0  0  0
 16 17  1  1  0  0  0
 16 18  1  0  0  0  0
  7 18  1  0  0  0  0
 18 19  1  6  0  0  0
 18 20  1  0  0  0  0
 20 21  2  0  0  0  0
 20 22  1  0  0  0  0
 22 23  1  0  0  0  0
  6 23  1  0  0  0  0
  2 23  1  0  0  0  0
 23 24  1  1  0  0  0
M  END
> <InChI>
InChI=1S/C20H27FO3/c1-17-8-6-13(22)10-12(17)4-5-15-14-7-9-19(3,24)18(14,2)11-16(23)20(15,17)21/h10,14-15,24H,4-9,11H2,1-3H3/t14-,15-,17-,18-,19-,20-/m0/s1

> <InChIKey>
YUMWOIMGKYOLOA-MWTXUKJESA-N

> <SMILES>
C[C@]1(O)CC[C@H]2[C@@H]3CCC4=CC(=O)CC[C@]4(C)[C@@]3(F)C(=O)C[C@@]21C

> <Synonyms>


> <PUBCHEM_CID>


> <Molecular_formula>
C20H27FO3

> <Major_Isotope_Mass>
334.194422944

> <ALogP>
2.4581999999999984

> <Lipinski_Violations>
0

> <Insecticide_Likeness_Violations>
0

> <Post_Em_Herbicide_Likeness_Violations>
0

> <Metabolite_ID>
BTM00007

> <Reaction>
Oxidation of secondary alcohol to ketone

> <Reaction_ID>
BTMR0079

> <Enzyme(s)>
CYP1A2
CYP2C9
CYP2C19

> <Biosystem>
HUMAN

> <Precursor_ID>


> <Precursor_SMILES>
C[C@]1(O)CC[C@H]2[C@@H]3CCC4=CC(=O)CC[C@]4(C)[C@@]3(F)[C@@H](O)C[C@@]21C

> <Precursor_InChI>
InChI=1S/C20H29FO3/c1-17-8-6-13(22)10-12(17)4-5-15-14-7-9-19(3,24)18(14,2)11-16(23)20(15,17)21/h10,14-16,23-24H,4-9,11H2,1-3H3/t14-,15-,16-,17-,18-,19-,20-/m0/s1

> <Precursor_InChIKey>
YLRFCQOZQXIBAB-RBZZARIASA-N

> <Precursor_ALogP>


> <Precursor_Major_Isotope_Mass>
336.2100

$$$$
BTM00008
  CDK     09122622092D

 25 28  0  0  1  0  0  0  0  0999 V2000
    4.9495    3.1491    0.0000 C   0  0  0  0  0  0  0  0  0  0  0  0
    3.6500    2.4000    0.0000 C   0  0  2  0  0  0  0  0  0  0  0  0
    3.0424    3.7714    0.0000 O   0  0  0  0  0  0  0  0  0  0  0  0
    4.5300    1.1900    0.0000 C   0  0  0  0  0  0  0  0  0  0  0  0
    3.6500   -0.0200    0.0000 C   0  0  0  0  0  0  0  0  0  0  0  0
    2.2200    0.4400    0.0000 C   0  0  1  0  0  0  0  0  0  0  0  0
    0.9200   -0.3100    0.0000 C   0  0  2  0  0  0  0  0  0  0  0  0
    0.9200   -1.8100    0.0000 C   0  0  0  0  0  0  0  0  0  0  0  0
   -0.3800   -2.5600    0.0000 C   0  0  0  0  0  0  0  0  0  0  0  0
   -1.6800   -1.8100    0.0000 C   0  0  0  0  0  0  0  0  0  0  0  0
   -2.9800   -2.5600    0.0000 C   0  0  0  0  0  0  0  0  0  0  0  0
   -4.2800   -1.8100    0.0000 C   0  0  0  0  0  0  0  0  0  0  0  0
   -5.5789   -2.5602    0.0000 O   0  0  0  0  0  0  0  0  0  0  0  0
   -4.2800   -0.3100    0.0000 C   0  0  0  0  0  0  0  0  0  0  0  0
   -2.9800    0.4400    0.0000 C   0  0  0  0  0  0  0  0  0  0  0  0
   -1.6800   -0.3100    0.0000 C   0  0  1  0  0  0  0  0  0  0  0  0
   -1.6800    1.1900    0.0000 C   0  0  0  0  0  0  0  0  0  0  0  0
   -0.3800    0.4400    0.0000 C   0  0  2  0  0  0  0  0  0  0  0  0
   -0.3807   -1.0600    0.0000 F   0  0  0  0  0  0  0  0  0  0  0  0
   -0.3800    1.9400    0.0000 C   0  0  1  0  0  0  0  0  0  0  0  0
   -1.6789    2.6902    0.0000 O   0  0  0  0  0  0  0  0  0  0  0  0
    0.9200    2.6900    0.0000 C   0  0  0  0  0  0  0  0  0  0  0  0
    2.2200    1.9400    0.0000 C   0  0  2  0  0  0  0  0  0  0  0  0
    3.2186    0.8207    0.0000 C   0  0  0  0  0  0  0  0  0  0  0  0
   -0.3800   -4.0600    0.0000 O   0  0  0  0  0  0  0  0  0  0  0  0
  2  1  1  6  0  0  0
  2  3  1  1  0  0  0
  2  4  1  0  0  0  0
  4  5  1  0  0  0  0
  6  5  1  1  0  0  0
  6  7  1  0  0  0  0
  7  8  1  6  0  0  0
  8  9  1  0  0  0  0
  9 10  1  0  0  0  0
 10 11  2  0  0  0  0
 11 12  1  0  0  0  0
 12 13  2  0  0  0  0
 12 14  1  0  0  0  0
 14 15  1  0  0  0  0
 15 16  1  0  0  0  0
 10 16  1  0  0  0  0
 16 17  1  1  0  0  0
 16 18  1  0  0  0  0
  7 18  1  0  0  0  0
 18 19  1  6  0  0  0
 18 20  1  0  0  0  0
 20 21  1  1  0  0  0
 20 22  1  0  0  0  0
 22 23  1  0  0  0  0
  6 23  1  0  0  0  0
  2 23  1  0  0  0  0
 23 24  1  1  0  0  0
 25  9  1  0  0  0  0
M  END
> <InChI>
InChI=1S/C20H29FO4/c1-17-6-4-11(22)8-14(17)15(23)9-13-12-5-7-19(3,25)18(12,2)10-16(24)20(13,17)21/h8,12-13,15-16,23-25H,4-7,9-10H2,1-3H3/t12-,13-,15?,16-,17-,18-,19-,20-/m0/s1

> <InChIKey>
SAMKMXPGYNTUIZ-CUSNFQPJSA-N

> <SMILES>
C[C@]1(O)CC[C@H]2[C@@H]3CC(C4=CC(=O)CC[C@]4(C)[C@@]3(F)[C@@H](O)C[C@@]21C)O

> <Synonyms>


> <PUBCHEM_CID>


> <Molecular_formula>
C20H29FO4

> <Major_Isotope_Mass>
352.204987628

> <ALogP>
1.3957999999999955

> <Lipinski_Violations>
0

> <Insecticide_Likeness_Violations>
1

> <Post_Em_Herbicide_Likeness_Violations>
1

> <Metabolite_ID>
BTM00008

> <Reaction>
6-Hydroxylation of sterol

> <Reaction_ID>
BTMR0402

> <Enzyme(s)>
CYP2A6
CYP2B6
CYP2C8
CYP2C9
CYP2C19
CYP2D6
CYP3A4

> <Biosystem>
HUMAN

> <Precursor_ID>


> <Precursor_SMILES>
C[C@]1(O)CC[C@H]2[C@@H]3CCC4=CC(=O)CC[C@]4(C)[C@@]3(F)[C@@H](O)C[C@@]21C

> <Precursor_InChI>
InChI=1S/C20H29FO3/c1-17-8-6-13(22)10-12(17)4-5-15-14-7-9-19(3,24)18(14,2)11-16(23)20(15,17)21/h10,14-16,23-24H,4-9,11H2,1-3H3/t14-,15-,16-,17-,18-,19-,20-/m0/s1

> <Precursor_InChIKey>
YLRFCQOZQXIBAB-RBZZARIASA-N

> <Precursor_ALogP>


> <Precursor_Major_Isotope_Mass>
336.2100

$$$$
BTM00009
  CDK     09122622092D

 25 28  0  0  1  0  0  0  0  0999 V2000
    4.8541    2.7284    0.0000 C   0  0  0  0  0  0  0  0  0  0  0  0
    3.5600    1.9700    0.0000 C   0  0  2  0  0  0  0  0  0  0  0  0
    2.9475    3.3392    0.0000 O   0  0  0  0  0  0  0  0  0  0  0  0
    4.4600    0.7600    0.0000 C   0  0  0  0  0  0  0  0  0  0  0  0
    3.5600   -0.4400    0.0000 C   0  0  0  0  0  0  0  0  0  0  0  0
    2.1300    0.0100    0.0000 C   0  0  1  0  0  0  0  0  0  0  0  0
    0.8500   -0.7400    0.0000 C   0  0  2  0  0  0  0  0  0  0  0  0
    0.8500   -2.2500    0.0000 C   0  0  0  0  0  0  0  0  0  0  0  0
   -0.4300   -3.0000    0.0000 C   0  0  0  0  0  0  0  0  0  0  0  0
   -1.7100   -2.2500    0.0000 C   0  0  0  0  0  0  0  0  0  0  0  0
   -3.0700   -3.0000    0.0000 C   0  0  0  0  0  0  0  0  0  0  0  0
   -4.3500   -2.2500    0.0000 C   0  0  0  0  0  0  0  0  0  0  0  0
   -5.6514   -2.9958    0.0000 O   0  0  0  0  0  0  0  0  0  0  0  0
   -4.3500   -0.7400    0.0000 C   0  0  0  0  0  0  0  0  0  0  0  0
   -3.0700    0.0100    0.0000 C   0  0  0  0  0  0  0  0  0  0  0  0
   -1.7100   -0.7400    0.0000 C   0  0  1  0  0  0  0  0  0  0  0  0
   -1.7295    0.7599    0.0000 C   0  0  0  0  0  0  0  0  0  0  0  0
   -0.4300    0.0100    0.0000 C   0  0  2  0  0  0  0  0  0  0  0  0
   -0.4156   -1.4899    0.0000 F   0  0  0  0  0  0  0  0  0  0  0  0
   -0.4300    1.5100    0.0000 C   0  0  1  0  0  0  0  0  0  0  0  0
   -1.7336    2.2521    0.0000 O   0  0  0  0  0  0  0  0  0  0  0  0
    0.8500    2.2700    0.0000 C   0  0  0  0  0  0  0  0  0  0  0  0
    2.1300    1.5100    0.0000 C   0  0  2  0  0  0  0  0  0  0  0  0
    3.1356    0.3970    0.0000 C   0  0  0  0  0  0  0  0  0  0  0  0
    6.1580    1.9869    0.0000 O   0  0  0  0  0  0  0  0  0  0  0  0
  2  1  1  6  0  0  0
  2  3  1  1  0  0  0
  2  4  1  0  0  0  0
  4  5  1  0  0  0  0
  6  5  1  1  0  0  0
  6  7  1  0  0  0  0
  7  8  1  6  0  0  0
  8  9  1  0  0  0  0
  9 10  1  0  0  0  0
 10 11  2  0  0  0  0
 11 12  1  0  0  0  0
 12 13  2  0  0  0  0
 12 14  1  0  0  0  0
 14 15  1  0  0  0  0
 15 16  1  0  0  0  0
 10 16  1  0  0  0  0
 16 17  1  1  0  0  0
 16 18  1  0  0  0  0
  7 18  1  0  0  0  0
 18 19  1  6  0  0  0
 18 20  1  0  0  0  0
 20 21  1  1  0  0  0
 20 22  1  0  0  0  0
 22 23  1  0  0  0  0
  6 23  1  0  0  0  0
  2 23  1  0  0  0  0
 23 24  1  1  0  0  0
 25  1  1  0  0  0  0
M  END
> <InChI>
InChI=1S/C20H29FO4/c1-17-7-5-13(23)9-12(17)3-4-15-14-6-8-19(25,11-22)18(14,2)10-16(24)20(15,17)21/h9,14-16,22,24-25H,3-8,10-11H2,1-2H3/t14-,15-,16-,17-,18-,19+,20-/m0/s1

> <InChIKey>
HKKFCQCGLSGZSI-HAXSJCRZSA-N

> <SMILES>
C([C@]1(O)CC[C@H]2[C@@H]3CCC4=CC(=O)CC[C@]4(C)[C@@]3(F)[C@@H](O)C[C@@]21C)O

> <Synonyms>


> <PUBCHEM_CID>


> <Molecular_formula>
C20H29FO4

> <Major_Isotope_Mass>
352.204987628

> <ALogP>
1.6094999999999984

> <Lipinski_Violations>
0

> <Insecticide_Likeness_Violations>
1

> <Post_Em_Herbicide_Likeness_Violations>
1

> <Metabolite_ID>
BTM00009

> <Reaction>
Hydroxylation of methyl carbon adjacent to aliphatic ring

> <Reaction_ID>
BTMR0054

> <Enzyme(s)>
CYP2B6
CYP2C8
CYP2C9
CYP2C19
CYP2D6
CYP3A4

> <Biosystem>
HUMAN

> <Precursor_ID>


> <Precursor_SMILES>
C[C@]1(O)CC[C@H]2[C@@H]3CCC4=CC(=O)CC[C@]4(C)[C@@]3(F)[C@@H](O)C[C@@]21C

> <Precursor_InChI>
InChI=1S/C20H29FO3/c1-17-8-6-13(22)10-12(17)4-5-15-14-7-9-19(3,24)18(14,2)11-16(23)20(15,17)21/h10,14-16,23-24H,4-9,11H2,1-3H3/t14-,15-,16-,17-,18-,19-,20-/m0/s1

> <Precursor_InChIKey>
YLRFCQOZQXIBAB-RBZZARIASA-N

> <Precursor_ALogP>


> <Precursor_Major_Isotope_Mass>
336.2100

$$$$
BTM00010
  CDK     09122622092D

 25 28  0  0  1  0  0  0  0  0999 V2000
    4.8541    2.7284    0.0000 C   0  0  0  0  0  0  0  0  0  0  0  0
    3.5600    1.9700    0.0000 C   0  0  2  0  0  0  0  0  0  0  0  0
    3.1945    3.4248    0.0000 O   0  0  0  0  0  0  0  0  0  0  0  0
    4.4600    0.7600    0.0000 C   0  0  0  0  0  0  0  0  0  0  0  0
    3.5600   -0.4400    0.0000 C   0  0  0  0  0  0  0  0  0  0  0  0
    2.1300    0.0100    0.0000 C   0  0  1  0  0  0  0  0  0  0  0  0
    0.8500   -0.7400    0.0000 C   0  0  2  0  0  0  0  0  0  0  0  0
    0.8500   -2.2500    0.0000 C   0  0  0  0  0  0  0  0  0  0  0  0
   -0.4300   -3.0000    0.0000 C   0  0  0  0  0  0  0  0  0  0  0  0
   -1.7100   -2.2500    0.0000 C   0  0  0  0  0  0  0  0  0  0  0  0
   -3.0700   -3.0000    0.0000 C   0  0  0  0  0  0  0  0  0  0  0  0
   -4.3500   -2.2500    0.0000 C   0  0  0  0  0  0  0  0  0  0  0  0
   -5.6514   -2.9958    0.0000 O   0  0  0  0  0  0  0  0  0  0  0  0
   -4.3500   -0.7400    0.0000 C   0  0  0  0  0  0  0  0  0  0  0  0
   -3.0700    0.0100    0.0000 C   0  0  0  0  0  0  0  0  0  0  0  0
   -1.7100   -0.7400    0.0000 C   0  0  1  0  0  0  0  0  0  0  0  0
   -1.7295    0.7599    0.0000 C   0  0  0  0  0  0  0  0  0  0  0  0
   -0.4300    0.0100    0.0000 C   0  0  2  0  0  0  0  0  0  0  0  0
   -0.4156   -1.4899    0.0000 F   0  0  0  0  0  0  0  0  0  0  0  0
   -0.4300    1.5100    0.0000 C   0  0  1  0  0  0  0  0  0  0  0  0
   -1.7336    2.2521    0.0000 O   0  0  0  0  0  0  0  0  0  0  0  0
    0.8500    2.2700    0.0000 C   0  0  0  0  0  0  0  0  0  0  0  0
    2.1300    1.5100    0.0000 C   0  0  2  0  0  0  0  0  0  0  0  0
    2.2981    3.0006    0.0000 C   0  0  0  0  0  0  0  0  0  0  0  0
    1.0913    3.8914    0.0000 O   0  0  0  0  0  0  0  0  0  0  0  0
  2  1  1  6  0  0  0
  2  3  1  1  0  0  0
  2  4  1  0  0  0  0
  4  5  1  0  0  0  0
  6  5  1  1  0  0  0
  6  7  1  0  0  0  0
  7  8  1  6  0  0  0
  8  9  1  0  0  0  0
  9 10  1  0  0  0  0
 10 11  2  0  0  0  0
 11 12  1  0  0  0  0
 12 13  2  0  0  0  0
 12 14  1  0  0  0  0
 14 15  1  0  0  0  0
 15 16  1  0  0  0  0
 10 16  1  0  0  0  0
 16 17  1  1  0  0  0
 16 18  1  0  0  0  0
  7 18  1  0  0  0  0
 18 19  1  6  0  0  0
 18 20  1  0  0  0  0
 20 21  1  1  0  0  0
 20 22  1  0  0  0  0
 22 23  1  0  0  0  0
  6 23  1  0  0  0  0
  2 23  1  0  0  0  0
 23 24  1  1  0  0  0
 25 24  1  0  0  0  0
M  END
> <InChI>
InChI=1S/C20H29FO4/c1-17-7-5-13(23)9-12(17)3-4-15-14-6-8-18(2,25)19(14,11-22)10-16(24)20(15,17)21/h9,14-16,22,24-25H,3-8,10-11H2,1-2H3/t14-,15-,16-,17-,18-,19+,20-/m0/s1

> <InChIKey>
BXYLFSJGLWAEOD-HAXSJCRZSA-N

> <SMILES>
C[C@]1(O)CC[C@H]2[C@@H]3CCC4=CC(=O)CC[C@]4(C)[C@@]3(F)[C@@H](O)C[C@@]21CO

> <Synonyms>


> <PUBCHEM_CID>


> <Molecular_formula>
C20H29FO4

> <Major_Isotope_Mass>
352.204987628

> <ALogP>
1.4069999999999996

> <Lipinski_Violations>
0

> <Insecticide_Likeness_Violations>
1

> <Post_Em_Herbicide_Likeness_Violations>
1

> <Metabolite_ID>
BTM00010

> <Reaction>
Hydroxylation of methyl carbon adjacent to aliphatic ring

> <Reaction_ID>
BTMR0054

> <Enzyme(s)>
CYP2B6
CYP2C8
CYP2C9
CYP2C19
CYP2D6
CYP3A4

> <Biosystem>
HUMAN

> <Precursor_ID>


> <Precursor_SMILES>
C[C@]1(O)CC[C@H]2[C@@H]3CCC4=CC(=O)CC[C@]4(C)[C@@]3(F)[C@@H](O)C[C@@]21C

> <Precursor_InChI>
InChI=1S/C20H29FO3/c1-17-8-6-13(22)10-12(17)4-5-15-14-7-9-19(3,24)18(14,2)11-16(23)20(15,17)21/h10,14-16,23-24H,4-9,11H2,1-3H3/t14-,15-,16-,17-,18-,19-,20-/m0/s1

> <Precursor_InChIKey>
YLRFCQOZQXIBAB-RBZZARIASA-N

> <Precursor_ALogP>


> <Precursor_Major_Isotope_Mass>
336.2100

$$$$
BTM00011
  CDK     09122622092D

 25 28  0  0  1  0  0  0  0  0999 V2000
    6.2814    0.4567    0.0000 C   0  0  0  0  0  0  0  0  0  0  0  0
    4.9872   -0.3018    0.0000 C   0  0  2  0  0  0  0  0  0  0  0  0
    3.7866    2.3819    0.0000 O   0  0  0  0  0  0  0  0  0  0  0  0
    5.8872   -1.5118    0.0000 C   0  0  0  0  0  0  0  0  0  0  0  0
    4.9872   -2.7118    0.0000 C   0  0  0  0  0  0  0  0  0  0  0  0
    3.5572   -2.2618    0.0000 C   0  0  1  0  0  0  0  0  0  0  0  0
    2.2772   -3.0118    0.0000 C   0  0  2  0  0  0  0  0  0  0  0  0
    2.2772   -4.5218    0.0000 C   0  0  0  0  0  0  0  0  0  0  0  0
    0.9972   -5.2718    0.0000 C   0  0  0  0  0  0  0  0  0  0  0  0
   -0.2828   -4.5218    0.0000 C   0  0  0  0  0  0  0  0  0  0  0  0
   -1.6428   -5.2718    0.0000 C   0  0  0  0  0  0  0  0  0  0  0  0
   -2.9228   -4.5218    0.0000 C   0  0  0  0  0  0  0  0  0  0  0  0
   -4.2242   -5.2676    0.0000 O   0  0  0  0  0  0  0  0  0  0  0  0
   -2.9228   -3.0118    0.0000 C   0  0  0  0  0  0  0  0  0  0  0  0
   -1.6428   -2.2618    0.0000 C   0  0  0  0  0  0  0  0  0  0  0  0
   -0.2828   -3.0118    0.0000 C   0  0  1  0  0  0  0  0  0  0  0  0
   -0.3086   -1.0319    0.0000 C   0  0  0  0  0  0  0  0  0  0  0  0
    0.9972   -2.2618    0.0000 C   0  0  2  0  0  0  0  0  0  0  0  0
   -1.1371   -1.0386    0.0000 F   0  0  0  0  0  0  0  0  0  0  0  0
    0.9972   -0.7618    0.0000 C   0  0  1  0  0  0  0  0  0  0  0  0
   -0.3064   -0.0197    0.0000 O   0  0  0  0  0  0  0  0  0  0  0  0
    2.2772   -0.0018    0.0000 C   0  0  0  0  0  0  0  0  0  0  0  0
    3.5572   -0.7618    0.0000 C   0  0  2  0  0  0  0  0  0  0  0  0
    4.5628   -1.8748    0.0000 C   0  0  0  0  0  0  0  0  0  0  0  0
   -1.6173   -0.2989    0.0000 O   0  0  0  0  0  0  0  0  0  0  0  0
  2  1  1  6  0  0  0
  2  3  1  1  0  0  0
  2  4  1  0  0  0  0
  4  5  1  0  0  0  0
  6  5  1  1  0  0  0
  6  7  1  0  0  0  0
  7  8  1  6  0  0  0
  8  9  1  0  0  0  0
  9 10  1  0  0  0  0
 10 11  2  0  0  0  0
 11 12  1  0  0  0  0
 12 13  2  0  0  0  0
 12 14  1  0  0  0  0
 14 15  1  0  0  0  0
 15 16  1  0  0  0  0
 10 16  1  0  0  0  0
 16 17  1  1  0  0  0
 16 18  1  0  0  0  0
  7 18  1  0  0  0  0
 18 19  1  6  0  0  0
 18 20  1  0  0  0  0
 20 21  1  1  0  0  0
 20 22  1  0  0  0  0
 22 23  1  0  0  0  0
  6 23  1  0  0  0  0
  2 23  1  0  0  0  0
 23 24  1  1  0  0  0
 25 17  1  0  0  0  0
M  END
> <InChI>
InChI=1S/C20H29FO4/c1-17-10-16(24)20(21)15(14(17)6-7-18(17,2)25)4-3-12-9-13(23)5-8-19(12,20)11-22/h9,14-16,22,24-25H,3-8,10-11H2,1-2H3/t14-,15-,16-,17-,18-,19+,20-/m0/s1

> <InChIKey>
VSNUMAJJMGSITM-HAXSJCRZSA-N

> <SMILES>
C[C@]1(O)CC[C@H]2[C@@H]3CCC4=CC(=O)CC[C@]4(CO)[C@@]3(F)[C@@H](O)C[C@@]21C

> <Synonyms>


> <PUBCHEM_CID>


> <Molecular_formula>
C20H29FO4

> <Major_Isotope_Mass>
352.204987628

> <ALogP>
1.4069999999999996

> <Lipinski_Violations>
0

> <Insecticide_Likeness_Violations>
1

> <Post_Em_Herbicide_Likeness_Violations>
1

> <Metabolite_ID>
BTM00011

> <Reaction>
Hydroxylation of methyl carbon adjacent to aliphatic ring

> <Reaction_ID>
BTMR0054

> <Enzyme(s)>
CYP2B6
CYP2C8
CYP2C9
CYP2C19
CYP2D6
CYP3A4

> <Biosystem>
HUMAN

> <Precursor_ID>


> <Precursor_SMILES>
C[C@]1(O)CC[C@H]2[C@@H]3CCC4=CC(=O)CC[C@]4(C)[C@@]3(F)[C@@H](O)C[C@@]21C

> <Precursor_InChI>
InChI=1S/C20H29FO3/c1-17-8-6-13(22)10-12(17)4-5-15-14-7-9-19(3,24)18(14,2)11-16(23)20(15,17)21/h10,14-16,23-24H,4-9,11H2,1-3H3/t14-,15-,16-,17-,18-,19-,20-/m0/s1

> <Precursor_InChIKey>
YLRFCQOZQXIBAB-RBZZARIASA-N

> <Precursor_ALogP>


> <Precursor_Major_Isotope_Mass>
336.2100

$$$$
BTM00012
  CDK     09122622092D

 24 27  0  0  1  0  0  0  0  0999 V2000
    4.9495    3.1491    0.0000 C   0  0  0  0  0  0  0  0  0  0  0  0
    3.6500    2.4000    0.0000 C   0  0  2  0  0  0  0  0  0  0  0  0
    3.0424    3.7714    0.0000 O   0  0  0  0  0  0  0  0  0  0  0  0
    4.5300    1.1900    0.0000 C   0  0  0  0  0  0  0  0  0  0  0  0
    3.6500   -0.0200    0.0000 C   0  0  0  0  0  0  0  0  0  0  0  0
    2.2200    0.4400    0.0000 C   0  0  1  0  0  0  0  0  0  0  0  0
    0.9200   -0.3100    0.0000 C   0  0  2  0  0  0  0  0  0  0  0  0
    0.9200   -1.8100    0.0000 C   0  0  0  0  0  0  0  0  0  0  0  0
   -0.3800   -2.5600    0.0000 C   0  0  0  0  0  0  0  0  0  0  0  0
   -1.6800   -1.8100    0.0000 C   0  0  0  0  0  0  0  0  0  0  0  0
   -2.9800   -2.5600    0.0000 C   0  0  0  0  0  0  0  0  0  0  0  0
   -4.2800   -1.8100    0.0000 C   0  0  0  0  0  0  0  0  0  0  0  0
   -5.5789   -2.5602    0.0000 O   0  0  0  0  0  0  0  0  0  0  0  0
   -4.2800   -0.3100    0.0000 C   0  0  0  0  0  0  0  0  0  0  0  0
   -2.9800    0.4400    0.0000 C   0  0  0  0  0  0  0  0  0  0  0  0
   -1.6800   -0.3100    0.0000 C   0  0  1  0  0  0  0  0  0  0  0  0
   -1.6800    1.1900    0.0000 C   0  0  0  0  0  0  0  0  0  0  0  0
   -0.3800    0.4400    0.0000 C   0  0  2  0  0  0  0  0  0  0  0  0
   -0.3807   -1.0600    0.0000 F   0  0  0  0  0  0  0  0  0  0  0  0
   -0.3800    1.9400    0.0000 C   0  0  1  0  0  0  0  0  0  0  0  0
   -1.6789    2.6902    0.0000 O   0  0  0  0  0  0  0  0  0  0  0  0
    0.9200    2.6900    0.0000 C   0  0  0  0  0  0  0  0  0  0  0  0
    2.2200    1.9400    0.0000 C   0  0  2  0  0  0  0  0  0  0  0  0
    3.2186    0.8207    0.0000 C   0  0  0  0  0  0  0  0  0  0  0  0
  2  1  1  6  0  0  0
  2  3  1  1  0  0  0
  2  4  1  0  0  0  0
  4  5  1  0  0  0  0
  6  5  1  1  0  0  0
  6  7  1  0  0  0  0
  7  8  1  6  0  0  0
  8  9  1  0  0  0  0
  9 10  1  0  0  0  0
 10 11  1  0  0  0  0
 11 12  1  0  0  0  0
 12 13  2  0  0  0  0
 12 14  1  0  0  0  0
 14 15  1  0  0  0  0
 15 16  1  0  0  0  0
 10 16  1  0  0  0  0
 16 17  1  1  0  0  0
 16 18  1  0  0  0  0
  7 18  1  0  0  0  0
 18 19  1  6  0  0  0
 18 20  1  0  0  0  0
 20 21  1  1  0  0  0
 20 22  1  0  0  0  0
 22 23  1  0  0  0  0
  6 23  1  0  0  0  0
  2 23  1  0  0  0  0
 23 24  1  1  0  0  0
M  END
> <InChI>
InChI=1S/C20H31FO3/c1-17-8-6-13(22)10-12(17)4-5-15-14-7-9-19(3,24)18(14,2)11-16(23)20(15,17)21/h12,14-16,23-24H,4-11H2,1-3H3/t12?,14-,15-,16-,17-,18-,19-,20-/m0/s1

> <InChIKey>
OFGHFEJLUUXXNZ-DBFOYCQXSA-N

> <SMILES>
C[C@]1(O)CC[C@H]2[C@@H]3CCC4CC(=O)CC[C@]4(C)[C@@]3(F)[C@@H](O)C[C@@]21C

> <Synonyms>


> <PUBCHEM_CID>


> <Molecular_formula>
C20H31FO3

> <Major_Isotope_Mass>
338.225723072

> <ALogP>
2.326299999999997

> <Lipinski_Violations>
0

> <Insecticide_Likeness_Violations>
0

> <Post_Em_Herbicide_Likeness_Violations>
0

> <Metabolite_ID>
BTM00012

> <Reaction>
Reduction of alpha,beta-unsaturated carbon-carbon double bond adjacent to electron withdrawing group

> <Reaction_ID>
BTMR1209

> <Enzyme(s)>
EC 1.6.99.1

> <Biosystem>
GUTMICRO

> <Precursor_ID>


> <Precursor_SMILES>
C[C@]1(O)CC[C@H]2[C@@H]3CCC4=CC(=O)CC[C@]4(C)[C@@]3(F)[C@@H](O)C[C@@]21C

> <Precursor_InChI>
InChI=1S/C20H29FO3/c1-17-8-6-13(22)10-12(17)4-5-15-14-7-9-19(3,24)18(14,2)11-16(23)20(15,17)21/h10,14-16,23-24H,4-9,11H2,1-3H3/t14-,15-,16-,17-,18-,19-,20-/m0/s1

> <Precursor_InChIKey>
YLRFCQOZQXIBAB-RBZZARIASA-N

> <Precursor_ALogP>


> <Precursor_Major_Isotope_Mass>
336.2100

$$$$
