BTM00001
  CDK     09122622102D

 22 25  0  0  1  0  0  0  0  0999 V2000
   -1.6800    1.1900    0.0000 C   0  0  0  0  0  0  0  0  0  0  0  0
   -1.6800   -0.3100    0.0000 C   0  0  2  0  0  0  0  0  0  0  0  0
   -2.9800    0.4400    0.0000 C   0  0  0  0  0  0  0  0  0  0  0  0
   -4.2800   -0.3100    0.0000 C   0  0  0  0  0  0  0  0  0  0  0  0
   -4.2800   -1.8100    0.0000 C   0  0  0  0  0  0  0  0  0  0  0  0
   -5.5789   -2.5602    0.0000 O   0  0  0  0  0  0  0  0  0  0  0  0
   -2.9800   -2.5600    0.0000 C   0  0  0  0  0  0  0  0  0  0  0  0
   -1.6800   -1.8100    0.0000 C   0  0  2  0  0  0  0  0  0  0  0  0
   -0.3800   -2.5600    0.0000 C   0  0  0  0  0  0  0  0  0  0  0  0
    0.9200   -1.8100    0.0000 C   0  0  0  0  0  0  0  0  0  0  0  0
    0.9200   -0.3100    0.0000 C   0  0  2  0  0  0  0  0  0  0  0  0
   -0.3800    0.4400    0.0000 C   0  0  2  0  0  0  0  0  0  0  0  0
   -0.3800    1.9400    0.0000 C   0  0  0  0  0  0  0  0  0  0  0  0
    0.9200    2.6900    0.0000 C   0  0  0  0  0  0  0  0  0  0  0  0
    2.2200    1.9400    0.0000 C   0  0  1  0  0  0  0  0  0  0  0  0
    2.3787    3.4316    0.0000 C   0  0  0  0  0  0  0  0  0  0  0  0
    2.2200    0.4400    0.0000 C   0  0  1  0  0  0  0  0  0  0  0  0
    3.6500   -0.0200    0.0000 C   0  0  0  0  0  0  0  0  0  0  0  0
    4.5300    1.1900    0.0000 C   0  0  0  0  0  0  0  0  0  0  0  0
    3.6500    2.4000    0.0000 C   0  0  1  0  0  0  0  0  0  0  0  0
    4.9495    3.1491    0.0000 C   0  0  0  0  0  0  0  0  0  0  0  0
    3.6962    0.9007    0.0000 O   0  0  0  0  0  0  0  0  0  0  0  0
  2  1  1  1  0  0  0
  2  3  1  0  0  0  0
  3  4  2  0  0  0  0
  4  5  1  0  0  0  0
  5  6  1  0  0  0  0
  5  7  1  0  0  0  0
  8  7  1  1  0  0  0
  2  8  1  0  0  0  0
  8  9  1  0  0  0  0
  9 10  1  0  0  0  0
 11 10  1  6  0  0  0
 11 12  1  0  0  0  0
  2 12  1  0  0  0  0
 12 13  1  1  0  0  0
 13 14  1  0  0  0  0
 14 15  1  0  0  0  0
 15 16  1  1  0  0  0
 15 17  1  0  0  0  0
 11 17  1  0  0  0  0
 17 18  1  1  0  0  0
 18 19  1  0  0  0  0
 20 19  1  6  0  0  0
 15 20  1  0  0  0  0
 20 21  1  0  0  0  0
 20 22  1  1  0  0  0
M  END
> <InChI>
InChI=1S/C20H32O2/c1-18-9-6-14(21)12-13(18)4-5-15-16(18)7-10-19(2)17(15)8-11-20(19,3)22/h6,9,13-17,21-22H,4-5,7-8,10-12H2,1-3H3/t13-,14?,15+,16-,17-,18-,19-,20-/m0/s1

> <InChIKey>
UMCBDWHORFFLCD-FKOQLDOJSA-N

> <SMILES>
C[C@]12C=CC(O)C[C@@H]1CC[C@@H]3[C@@H]2CC[C@@]4(C)[C@H]3CC[C@]4(C)O

> <Synonyms>


> <PUBCHEM_CID>


> <Molecular_formula>
C20H32O2

> <Major_Isotope_Mass>
304.240230264

> <ALogP>
3.3831999999999987

> <Lipinski_Violations>
0

> <Insecticide_Likeness_Violations>
0

> <Post_Em_Herbicide_Likeness_Violations>
0

> <Metabolite_ID>
BTM00001

> <Reaction>
Reduction of carbonyl

> <Reaction_ID>
BTMR0368

> <Enzyme(s)>
EC 1.1.1.184

> <Biosystem>
HUMAN

> <Precursor_ID>


> <Precursor_SMILES>
C[C@]12C=CC(=O)C[C@@H]1CC[C@@H]3[C@@H]2CC[C@@]4(C)[C@H]3CC[C@]4(C)O

> <Precursor_InChI>
InChI=1S/C20H30O2/c1-18-9-6-14(21)12-13(18)4-5-15-16(18)7-10-19(2)17(15)8-11-20(19,3)22/h6,9,13,15-17,22H,4-5,7-8,10-12H2,1-3H3/t13-,15+,16-,17-,18-,19-,20-/m0/s1

> <Precursor_InChIKey>
JRNSSSJKIGAFCT-YDSAWKJFSA-N

> <Precursor_ALogP>


> <Precursor_Major_Isotope_Mass>
302.2245

$$$$
BTM00002
  CDK     09122622102D

 23 26  0  0  1  0  0  0  0  0999 V2000
   -1.7600    0.6800    0.0000 C   0  0  0  0  0  0  0  0  0  0  0  0
   -1.7600   -0.8200    0.0000 C   0  0  2  0  0  0  0  0  0  0  0  0
   -3.0600   -0.0700    0.0000 C   0  0  0  0  0  0  0  0  0  0  0  0
   -4.3600   -0.8200    0.0000 C   0  0  0  0  0  0  0  0  0  0  0  0
   -4.3600   -2.3200    0.0000 C   0  0  0  0  0  0  0  0  0  0  0  0
   -5.6589   -3.0702    0.0000 O   0  0  0  0  0  0  0  0  0  0  0  0
   -3.0600   -3.0700    0.0000 C   0  0  0  0  0  0  0  0  0  0  0  0
   -1.7600   -2.3200    0.0000 C   0  0  2  0  0  0  0  0  0  0  0  0
   -0.4600   -3.0700    0.0000 C   0  0  0  0  0  0  0  0  0  0  0  0
    0.8400   -2.3200    0.0000 C   0  0  0  0  0  0  0  0  0  0  0  0
    0.8400   -0.8200    0.0000 C   0  0  2  0  0  0  0  0  0  0  0  0
   -0.4600   -0.0700    0.0000 C   0  0  2  0  0  0  0  0  0  0  0  0
   -0.4600    1.4300    0.0000 C   0  0  0  0  0  0  0  0  0  0  0  0
    0.8400    2.1800    0.0000 C   0  0  0  0  0  0  0  0  0  0  0  0
    2.1400    1.4300    0.0000 C   0  0  1  0  0  0  0  0  0  0  0  0
    2.2972    2.9217    0.0000 C   0  0  0  0  0  0  0  0  0  0  0  0
    2.1400   -0.0700    0.0000 C   0  0  1  0  0  0  0  0  0  0  0  0
    3.5600   -0.5400    0.0000 C   0  0  0  0  0  0  0  0  0  0  0  0
    4.4500    0.6800    0.0000 C   0  0  0  0  0  0  0  0  0  0  0  0
    3.5600    1.8900    0.0000 C   0  0  1  0  0  0  0  0  0  0  0  0
    4.8563    2.6447    0.0000 C   0  0  0  0  0  0  0  0  0  0  0  0
    3.6077    0.3908    0.0000 O   0  0  0  0  0  0  0  0  0  0  0  0
   -1.7589    2.1802    0.0000 O   0  0  0  0  0  0  0  0  0  0  0  0
  2  1  1  1  0  0  0
  2  3  1  0  0  0  0
  3  4  2  0  0  0  0
  4  5  1  0  0  0  0
  5  6  2  0  0  0  0
  5  7  1  0  0  0  0
  8  7  1  1  0  0  0
  2  8  1  0  0  0  0
  8  9  1  0  0  0  0
  9 10  1  0  0  0  0
 11 10  1  6  0  0  0
 11 12  1  0  0  0  0
  2 12  1  0  0  0  0
 12 13  1  1  0  0  0
 13 14  1  0  0  0  0
 14 15  1  0  0  0  0
 15 16  1  1  0  0  0
 15 17  1  0  0  0  0
 11 17  1  0  0  0  0
 17 18  1  1  0  0  0
 18 19  1  0  0  0  0
 20 19  1  6  0  0  0
 15 20  1  0  0  0  0
 20 21  1  0  0  0  0
 20 22  1  1  0  0  0
 23 13  1  0  0  0  0
M  END
> <InChI>
InChI=1S/C20H30O3/c1-18-8-6-13(21)10-12(18)4-5-14-15-7-9-20(3,23)19(15,2)11-16(22)17(14)18/h6,8,12,14-17,22-23H,4-5,7,9-11H2,1-3H3/t12-,14-,15-,16?,17+,18-,19-,20-/m0/s1

> <InChIKey>
SAJRNYDWSCZNPB-GUMIQTJWSA-N

> <SMILES>
C[C@]12C=CC(=O)C[C@@H]1CC[C@@H]3[C@@H]2C(C[C@@]4(C)[C@H]3CC[C@]4(C)O)O

> <Synonyms>


> <PUBCHEM_CID>


> <Molecular_formula>
C20H30O3

> <Major_Isotope_Mass>
318.21949481999997

> <ALogP>
2.1742999999999997

> <Lipinski_Violations>
0

> <Insecticide_Likeness_Violations>
0

> <Post_Em_Herbicide_Likeness_Violations>
0

> <Metabolite_ID>
BTM00002

> <Reaction>
11-beta-Hydroxylation of sterol

> <Reaction_ID>
BTMR0406

> <Enzyme(s)>
EC 1.14.15.4

> <Biosystem>
HUMAN

> <Precursor_ID>


> <Precursor_SMILES>
C[C@]12C=CC(=O)C[C@@H]1CC[C@@H]3[C@@H]2CC[C@@]4(C)[C@H]3CC[C@]4(C)O

> <Precursor_InChI>
InChI=1S/C20H30O2/c1-18-9-6-14(21)12-13(18)4-5-15-16(18)7-10-19(2)17(15)8-11-20(19,3)22/h6,9,13,15-17,22H,4-5,7-8,10-12H2,1-3H3/t13-,15+,16-,17-,18-,19-,20-/m0/s1

> <Precursor_InChIKey>
JRNSSSJKIGAFCT-YDSAWKJFSA-N

> <Precursor_ALogP>


> <Precursor_Major_Isotope_Mass>
302.2245

$$$$
BTM00003
  CDK     09122622102D

 34 38  0  0  1  0  0  0  0  0999 V2000
   -1.6442    0.3418    0.0000 C   0  0  0  0  0  0  0  0  0  0  0  0
   -1.6442   -1.1582    0.0000 C   0  0  2  0  0  0  0  0  0  0  0  0
   -2.9442   -0.4082    0.0000 C   0  0  0  0  0  0  0  0  0  0  0  0
   -4.2442   -1.1582    0.0000 C   0  0  0  0  0  0  0  0  0  0  0  0
   -4.2442   -2.6582    0.0000 C   0  0  0  0  0  0  0  0  0  0  0  0
   -5.5431   -3.4084    0.0000 O   0  0  0  0  0  0  0  0  0  0  0  0
   -2.9442   -3.4082    0.0000 C   0  0  0  0  0  0  0  0  0  0  0  0
   -1.6442   -2.6582    0.0000 C   0  0  2  0  0  0  0  0  0  0  0  0
   -0.3442   -3.4082    0.0000 C   0  0  0  0  0  0  0  0  0  0  0  0
    0.9558   -2.6582    0.0000 C   0  0  0  0  0  0  0  0  0  0  0  0
    0.9558   -1.1582    0.0000 C   0  0  2  0  0  0  0  0  0  0  0  0
   -0.3442   -0.4082    0.0000 C   0  0  2  0  0  0  0  0  0  0  0  0
   -0.3442    1.0918    0.0000 C   0  0  0  0  0  0  0  0  0  0  0  0
    0.9558    1.8418    0.0000 C   0  0  0  0  0  0  0  0  0  0  0  0
    2.2558    1.0918    0.0000 C   0  0  1  0  0  0  0  0  0  0  0  0
    2.4130    2.5835    0.0000 C   0  0  0  0  0  0  0  0  0  0  0  0
    2.2558   -0.4082    0.0000 C   0  0  1  0  0  0  0  0  0  0  0  0
    3.6758   -0.8782    0.0000 C   0  0  0  0  0  0  0  0  0  0  0  0
    4.5658    0.3418    0.0000 C   0  0  0  0  0  0  0  0  0  0  0  0
    3.6758    1.5518    0.0000 C   0  0  1  0  0  0  0  0  0  0  0  0
    4.9722    2.3065    0.0000 C   0  0  0  0  0  0  0  0  0  0  0  0
    2.8680    3.3595    0.0000 O   0  0  0  0  0  0  0  0  0  0  0  0
    1.6535    6.0975    0.0000 O   0  0  0  0  0  0  0  0  0  0  0  0
    3.1448    5.9367    0.0000 C   0  0  0  0  0  0  0  0  0  0  0  0
    4.0442    7.1660    0.0000 C   0  0  0  0  0  0  0  0  0  0  0  0
    3.4415    8.5396    0.0000 O   0  0  0  0  0  0  0  0  0  0  0  0
    5.5406    6.9973    0.0000 C   0  0  0  0  0  0  0  0  0  0  0  0
    6.4281    8.2066    0.0000 O   0  0  0  0  0  0  0  0  0  0  0  0
    6.1438    5.6349    0.0000 C   0  0  0  0  0  0  0  0  0  0  0  0
    5.2587    4.4228    0.0000 O   0  0  0  0  0  0  0  0  0  0  0  0
    3.7480    4.5742    0.0000 C   0  0  0  0  0  0  0  0  0  0  0  0
    7.6352    5.4747    0.0000 C   0  0  0  0  0  0  0  0  0  0  0  0
    8.5196    6.6863    0.0000 O   0  0  0  0  0  0  0  0  0  0  0  0
    8.2422    4.1030    0.0000 O   0  0  0  0  0  0  0  0  0  0  0  0
  2  1  1  1  0  0  0
  2  3  1  0  0  0  0
  3  4  2  0  0  0  0
  4  5  1  0  0  0  0
  5  6  2  0  0  0  0
  5  7  1  0  0  0  0
  8  7  1  1  0  0  0
  2  8  1  0  0  0  0
  8  9  1  0  0  0  0
  9 10  1  0  0  0  0
 11 10  1  6  0  0  0
 11 12  1  0  0  0  0
  2 12  1  0  0  0  0
 12 13  1  1  0  0  0
 13 14  1  0  0  0  0
 14 15  1  0  0  0  0
 15 16  1  1  0  0  0
 15 17  1  0  0  0  0
 11 17  1  0  0  0  0
 17 18  1  1  0  0  0
 18 19  1  0  0  0  0
 19 20  1  0  0  0  0
 15 20  1  0  0  0  0
 20 21  1  6  0  0  0
 20 22  1  1  0  0  0
 23 24  1  0  0  0  0
 24 25  1  0  0  0  0
 25 26  1  0  0  0  0
 25 27  1  0  0  0  0
 27 28  1  0  0  0  0
 27 29  1  0  0  0  0
 29 30  1  0  0  0  0
 30 31  1  0  0  0  0
 24 31  1  0  0  0  0
 31 22  1  0  0  0  0
 29 32  1  0  0  0  0
 32 33  1  0  0  0  0
 32 34  2  0  0  0  0
M  END
> <InChI>
InChI=1S/C26H38O8/c1-24-9-6-14(27)12-13(24)4-5-15-16(24)7-10-25(2)17(15)8-11-26(25,3)34-23-20(30)18(28)19(29)21(33-23)22(31)32/h6,9,13,15-21,23,28-30H,4-5,7-8,10-12H2,1-3H3,(H,31,32)/t13-,15+,16-,17-,18?,19?,20?,21?,23?,24-,25-,26-/m0/s1

> <InChIKey>
OFMKYKLRBINNFE-AVFAHQGJSA-N

> <SMILES>
C[C@]12C=CC(=O)C[C@@H]1CC[C@@H]3[C@@H]2CC[C@@]4(C)[C@H]3CC[C@]4(C)OC5OC(C(C(C5O)O)O)C(O)=O

> <Synonyms>


> <PUBCHEM_CID>


> <Molecular_formula>
C26H38O8

> <Major_Isotope_Mass>
478.256668176

> <ALogP>
1.8056999999999939

> <Lipinski_Violations>
0

> <Insecticide_Likeness_Violations>
1

> <Post_Em_Herbicide_Likeness_Violations>
1

> <Metabolite_ID>
BTM00003

> <Reaction>
17-OH-Glucuronidation of sterol

> <Reaction_ID>
BTMR0163

> <Enzyme(s)>
EC 2.4.1.17

> <Biosystem>
HUMAN

> <Precursor_ID>


> <Precursor_SMILES>
C[C@]12C=CC(=O)C[C@@H]1CC[C@@H]3[C@@H]2CC[C@@]4(C)[C@H]3CC[C@]4(C)O

> <Precursor_InChI>
InChI=1S/C20H30O2/c1-18-9-6-14(21)12-13(18)4-5-15-16(18)7-10-19(2)17(15)8-11-20(19,3)22/h6,9,13,15-17,22H,4-5,7-8,10-12H2,1-3H3/t13-,15+,16-,17-,18-,19-,20-/m0/s1

> <Precursor_InChIKey>
JRNSSSJKIGAFCT-YDSAWKJFSA-N

> <Precursor_ALogP>


> <Precursor_Major_Isotope_Mass>
302.2245

$$$$
BTM00004
  CDK     09122622102D

 23 26  0  0  1  0  0  0  0  0999 V2000
   -1.6800    1.1900    0.0000 C   0  0  0  0  0  0  0  0  0  0  0  0
   -1.6800   -0.3100    0.0000 C   0  0  2  0  0  0  0  0  0  0  0  0
   -2.9800    0.4400    0.0000 C   0  0  0  0  0  0  0  0  0  0  0  0
   -4.2800   -0.3100    0.0000 C   0  0  0  0  0  0  0  0  0  0  0  0
   -4.2800   -1.8100    0.0000 C   0  0  0  0  0  0  0  0  0  0  0  0
   -5.5789   -2.5602    0.0000 O   0  0  0  0  0  0  0  0  0  0  0  0
   -2.9800   -2.5600    0.0000 C   0  0  0  0  0  0  0  0  0  0  0  0
   -1.6800   -1.8100    0.0000 C   0  0  2  0  0  0  0  0  0  0  0  0
   -0.3800   -2.5600    0.0000 C   0  0  0  0  0  0  0  0  0  0  0  0
    0.9200   -1.8100    0.0000 C   0  0  0  0  0  0  0  0  0  0  0  0
    0.9200   -0.3100    0.0000 C   0  0  2  0  0  0  0  0  0  0  0  0
   -0.3800    0.4400    0.0000 C   0  0  2  0  0  0  0  0  0  0  0  0
   -0.3800    1.9400    0.0000 C   0  0  0  0  0  0  0  0  0  0  0  0
    0.9200    2.6900    0.0000 C   0  0  0  0  0  0  0  0  0  0  0  0
    2.2200    1.9400    0.0000 C   0  0  1  0  0  0  0  0  0  0  0  0
    2.3787    3.4316    0.0000 C   0  0  0  0  0  0  0  0  0  0  0  0
    2.2200    0.4400    0.0000 C   0  0  1  0  0  0  0  0  0  0  0  0
    3.6500   -0.0200    0.0000 C   0  0  0  0  0  0  0  0  0  0  0  0
    4.5300    1.1900    0.0000 C   0  0  0  0  0  0  0  0  0  0  0  0
    3.6500    2.4000    0.0000 C   0  0  1  0  0  0  0  0  0  0  0  0
    4.9495    3.1491    0.0000 C   0  0  0  0  0  0  0  0  0  0  0  0
    3.6962    0.9007    0.0000 O   0  0  0  0  0  0  0  0  0  0  0  0
    6.0300    1.1900    0.0000 O   0  0  0  0  0  0  0  0  0  0  0  0
  2  1  1  1  0  0  0
  2  3  1  0  0  0  0
  3  4  2  0  0  0  0
  4  5  1  0  0  0  0
  5  6  2  0  0  0  0
  5  7  1  0  0  0  0
  8  7  1  1  0  0  0
  2  8  1  0  0  0  0
  8  9  1  0  0  0  0
  9 10  1  0  0  0  0
 11 10  1  6  0  0  0
 11 12  1  0  0  0  0
  2 12  1  0  0  0  0
 12 13  1  1  0  0  0
 13 14  1  0  0  0  0
 14 15  1  0  0  0  0
 15 16  1  1  0  0  0
 15 17  1  0  0  0  0
 11 17  1  0  0  0  0
 17 18  1  1  0  0  0
 18 19  1  0  0  0  0
 19 20  1  0  0  0  0
 15 20  1  0  0  0  0
 20 21  1  0  0  0  0
 20 22  1  1  0  0  0
 23 19  1  0  0  0  0
M  END
> <InChI>
InChI=1S/C20H30O3/c1-18-8-6-13(21)10-12(18)4-5-14-15(18)7-9-19(2)16(14)11-17(22)20(19,3)23/h6,8,12,14-17,22-23H,4-5,7,9-11H2,1-3H3/t12-,14+,15-,16-,17?,18-,19-,20-/m0/s1

> <InChIKey>
WQZZHEFNPNPPQY-GTAIRLKOSA-N

> <SMILES>
C[C@]12C=CC(=O)C[C@@H]1CC[C@@H]3[C@@H]2CC[C@@]4(C)[C@H]3CC([C@]4(C)O)O

> <Synonyms>


> <PUBCHEM_CID>


> <Molecular_formula>
C20H30O3

> <Major_Isotope_Mass>
318.21949481999997

> <ALogP>
2.376799999999999

> <Lipinski_Violations>
0

> <Insecticide_Likeness_Violations>
0

> <Post_Em_Herbicide_Likeness_Violations>
0

> <Metabolite_ID>
BTM00004

> <Reaction>
16-Hydroxylation of sterol

> <Reaction_ID>
BTMR0407

> <Enzyme(s)>
CYP1A2
CYP2A6
CYP2B6
CYP2C8
CYP2C9
CYP2C19
CYP2D6
CYP2E1
CYP3A4

> <Biosystem>
HUMAN

> <Precursor_ID>


> <Precursor_SMILES>
C[C@]12C=CC(=O)C[C@@H]1CC[C@@H]3[C@@H]2CC[C@@]4(C)[C@H]3CC[C@]4(C)O

> <Precursor_InChI>
InChI=1S/C20H30O2/c1-18-9-6-14(21)12-13(18)4-5-15-16(18)7-10-19(2)17(15)8-11-20(19,3)22/h6,9,13,15-17,22H,4-5,7-8,10-12H2,1-3H3/t13-,15+,16-,17-,18-,19-,20-/m0/s1

> <Precursor_InChIKey>
JRNSSSJKIGAFCT-YDSAWKJFSA-N

> <Precursor_ALogP>


> <Precursor_Major_Isotope_Mass>
302.2245

$$$$
BTM00005
  CDK     09122622102D

 23 26  0  0  1  0  0  0  0  0999 V2000
   -1.6800    1.1900    0.0000 C   0  0  0  0  0  0  0  0  0  0  0  0
   -1.6800   -0.3100    0.0000 C   0  0  2  0  0  0  0  0  0  0  0  0
   -2.9800    0.4400    0.0000 C   0  0  0  0  0  0  0  0  0  0  0  0
   -4.2800   -0.3100    0.0000 C   0  0  0  0  0  0  0  0  0  0  0  0
   -4.2800   -1.8100    0.0000 C   0  0  0  0  0  0  0  0  0  0  0  0
   -5.5789   -2.5602    0.0000 O   0  0  0  0  0  0  0  0  0  0  0  0
   -2.9800   -2.5600    0.0000 C   0  0  0  0  0  0  0  0  0  0  0  0
   -1.6800   -1.8100    0.0000 C   0  0  2  0  0  0  0  0  0  0  0  0
   -0.3800   -2.5600    0.0000 C   0  0  0  0  0  0  0  0  0  0  0  0
    0.9200   -1.8100    0.0000 C   0  0  0  0  0  0  0  0  0  0  0  0
    0.9200   -0.3100    0.0000 C   0  0  2  0  0  0  0  0  0  0  0  0
   -0.3800    0.4400    0.0000 C   0  0  2  0  0  0  0  0  0  0  0  0
   -0.3800    1.9400    0.0000 C   0  0  0  0  0  0  0  0  0  0  0  0
    0.9200    2.6900    0.0000 C   0  0  0  0  0  0  0  0  0  0  0  0
    2.2200    1.9400    0.0000 C   0  0  1  0  0  0  0  0  0  0  0  0
    2.3787    3.4316    0.0000 C   0  0  0  0  0  0  0  0  0  0  0  0
    2.2200    0.4400    0.0000 C   0  0  1  0  0  0  0  0  0  0  0  0
    3.6500   -0.0200    0.0000 C   0  0  0  0  0  0  0  0  0  0  0  0
    4.5300    1.1900    0.0000 C   0  0  0  0  0  0  0  0  0  0  0  0
    3.6500    2.4000    0.0000 C   0  0  1  0  0  0  0  0  0  0  0  0
    4.9495    3.1491    0.0000 C   0  0  0  0  0  0  0  0  0  0  0  0
    3.6962    0.9007    0.0000 O   0  0  0  0  0  0  0  0  0  0  0  0
   -5.5789    0.4402    0.0000 O   0  0  0  0  0  0  0  0  0  0  0  0
  2  1  1  1  0  0  0
  2  3  1  0  0  0  0
  3  4  2  0  0  0  0
  4  5  1  0  0  0  0
  5  6  2  0  0  0  0
  5  7  1  0  0  0  0
  8  7  1  1  0  0  0
  2  8  1  0  0  0  0
  8  9  1  0  0  0  0
  9 10  1  0  0  0  0
 11 10  1  6  0  0  0
 11 12  1  0  0  0  0
  2 12  1  0  0  0  0
 12 13  1  1  0  0  0
 13 14  1  0  0  0  0
 14 15  1  0  0  0  0
 15 16  1  1  0  0  0
 15 17  1  0  0  0  0
 11 17  1  0  0  0  0
 17 18  1  1  0  0  0
 18 19  1  0  0  0  0
 20 19  1  6  0  0  0
 15 20  1  0  0  0  0
 20 21  1  0  0  0  0
 20 22  1  1  0  0  0
 23  4  1  0  0  0  0
M  END
> <InChI>
InChI=1S/C20H30O3/c1-18-11-17(22)16(21)10-12(18)4-5-13-14(18)6-8-19(2)15(13)7-9-20(19,3)23/h11-15,22-23H,4-10H2,1-3H3/t12-,13+,14-,15-,18-,19-,20-/m0/s1

> <InChIKey>
PCVPXQRVVKHUIG-IVEVATEUSA-N

> <SMILES>
C[C@]12C=C(C(=O)C[C@@H]1CC[C@@H]3[C@@H]2CC[C@@]4(C)[C@H]3CC[C@]4(C)O)O

> <Synonyms>


> <PUBCHEM_CID>


> <Molecular_formula>
C20H30O3

> <Major_Isotope_Mass>
318.21949481999997

> <ALogP>
2.7805999999999957

> <Lipinski_Violations>
0

> <Insecticide_Likeness_Violations>
0

> <Post_Em_Herbicide_Likeness_Violations>
0

> <Metabolite_ID>
BTM00005

> <Reaction>
2-Hydroxylation of sterol

> <Reaction_ID>
BTMR0398

> <Enzyme(s)>
CYP1A2
CYP2C19
CYP3A4

> <Biosystem>
HUMAN

> <Precursor_ID>


> <Precursor_SMILES>
C[C@]12C=CC(=O)C[C@@H]1CC[C@@H]3[C@@H]2CC[C@@]4(C)[C@H]3CC[C@]4(C)O

> <Precursor_InChI>
InChI=1S/C20H30O2/c1-18-9-6-14(21)12-13(18)4-5-15-16(18)7-10-19(2)17(15)8-11-20(19,3)22/h6,9,13,15-17,22H,4-5,7-8,10-12H2,1-3H3/t13-,15+,16-,17-,18-,19-,20-/m0/s1

> <Precursor_InChIKey>
JRNSSSJKIGAFCT-YDSAWKJFSA-N

> <Precursor_ALogP>


> <Precursor_Major_Isotope_Mass>
302.2245

$$$$
BTM00006
  CDK     09122622102D

 23 26  0  0  1  0  0  0  0  0999 V2000
   -1.6800    1.1900    0.0000 C   0  0  0  0  0  0  0  0  0  0  0  0
   -1.6800   -0.3100    0.0000 C   0  0  2  0  0  0  0  0  0  0  0  0
   -2.9800    0.4400    0.0000 C   0  0  0  0  0  0  0  0  0  0  0  0
   -4.2800   -0.3100    0.0000 C   0  0  0  0  0  0  0  0  0  0  0  0
   -4.2800   -1.8100    0.0000 C   0  0  0  0  0  0  0  0  0  0  0  0
   -5.5789   -2.5602    0.0000 O   0  0  0  0  0  0  0  0  0  0  0  0
   -2.9800   -2.5600    0.0000 C   0  0  0  0  0  0  0  0  0  0  0  0
   -1.6800   -1.8100    0.0000 C   0  0  2  0  0  0  0  0  0  0  0  0
   -0.3800   -2.5600    0.0000 C   0  0  0  0  0  0  0  0  0  0  0  0
    0.9200   -1.8100    0.0000 C   0  0  0  0  0  0  0  0  0  0  0  0
    0.9200   -0.3100    0.0000 C   0  0  2  0  0  0  0  0  0  0  0  0
   -0.3800    0.4400    0.0000 C   0  0  2  0  0  0  0  0  0  0  0  0
   -0.3800    1.9400    0.0000 C   0  0  0  0  0  0  0  0  0  0  0  0
    0.9200    2.6900    0.0000 C   0  0  0  0  0  0  0  0  0  0  0  0
    2.2200    1.9400    0.0000 C   0  0  1  0  0  0  0  0  0  0  0  0
    2.3787    3.4316    0.0000 C   0  0  0  0  0  0  0  0  0  0  0  0
    2.2200    0.4400    0.0000 C   0  0  1  0  0  0  0  0  0  0  0  0
    3.6500   -0.0200    0.0000 C   0  0  0  0  0  0  0  0  0  0  0  0
    4.5300    1.1900    0.0000 C   0  0  0  0  0  0  0  0  0  0  0  0
    3.6500    2.4000    0.0000 C   0  0  1  0  0  0  0  0  0  0  0  0
    4.9495    3.1491    0.0000 C   0  0  0  0  0  0  0  0  0  0  0  0
    3.6962    0.9007    0.0000 O   0  0  0  0  0  0  0  0  0  0  0  0
   -2.9800   -4.0600    0.0000 O   0  0  0  0  0  0  0  0  0  0  0  0
  2  1  1  1  0  0  0
  2  3  1  0  0  0  0
  3  4  2  0  0  0  0
  4  5  1  0  0  0  0
  5  6  2  0  0  0  0
  5  7  1  0  0  0  0
  7  8  1  0  0  0  0
  2  8  1  0  0  0  0
  8  9  1  1  0  0  0
  9 10  1  0  0  0  0
 11 10  1  6  0  0  0
 11 12  1  0  0  0  0
  2 12  1  0  0  0  0
 12 13  1  1  0  0  0
 13 14  1  0  0  0  0
 14 15  1  0  0  0  0
 15 16  1  1  0  0  0
 15 17  1  0  0  0  0
 11 17  1  0  0  0  0
 17 18  1  1  0  0  0
 18 19  1  0  0  0  0
 20 19  1  6  0  0  0
 15 20  1  0  0  0  0
 20 21  1  0  0  0  0
 20 22  1  1  0  0  0
 23  7  1  0  0  0  0
M  END
> <InChI>
InChI=1S/C20H30O3/c1-18-9-8-16(21)17(22)15(18)5-4-12-13(18)6-10-19(2)14(12)7-11-20(19,3)23/h8-9,12-15,17,22-23H,4-7,10-11H2,1-3H3/t12-,13+,14+,15+,17?,18-,19+,20+/m1/s1

> <InChIKey>
KHKWTNLZJANGOX-FKRFWOCFSA-N

> <SMILES>
C[C@]12C=CC(=O)C([C@@H]1CC[C@@H]3[C@@H]2CC[C@@]4(C)[C@H]3CC[C@]4(C)O)O

> <Synonyms>


> <PUBCHEM_CID>


> <Molecular_formula>
C20H30O3

> <Major_Isotope_Mass>
318.21949482

> <ALogP>
2.730699999999999

> <Lipinski_Violations>
0

> <Insecticide_Likeness_Violations>
0

> <Post_Em_Herbicide_Likeness_Violations>
0

> <Metabolite_ID>
BTM00006

> <Reaction>
4-Hydroxylation of sterol

> <Reaction_ID>
BTMR0400

> <Enzyme(s)>
CYP1A2
CYP3A4

> <Biosystem>
HUMAN

> <Precursor_ID>


> <Precursor_SMILES>
C[C@]12C=CC(=O)C[C@@H]1CC[C@@H]3[C@@H]2CC[C@@]4(C)[C@H]3CC[C@]4(C)O

> <Precursor_InChI>
InChI=1S/C20H30O2/c1-18-9-6-14(21)12-13(18)4-5-15-16(18)7-10-19(2)17(15)8-11-20(19,3)22/h6,9,13,15-17,22H,4-5,7-8,10-12H2,1-3H3/t13-,15+,16-,17-,18-,19-,20-/m0/s1

> <Precursor_InChIKey>
JRNSSSJKIGAFCT-YDSAWKJFSA-N

> <Precursor_ALogP>


> <Precursor_Major_Isotope_Mass>
302.2245

$$$$
BTM00007
  CDK     09122622102D

 23 27  0  0  1  0  0  0  0  0999 V2000
   -1.4400    1.1200    0.0000 C   0  0  0  0  0  0  0  0  0  0  0  0
   -1.4400   -0.3800    0.0000 C   0  0  2  0  0  0  0  0  0  0  0  0
   -2.7400    0.3800    0.0000 C   0  0  0  0  0  0  0  0  0  0  0  0
   -4.0400   -0.3800    0.0000 C   0  0  0  0  0  0  0  0  0  0  0  0
   -4.0400   -1.8800    0.0000 C   0  0  0  0  0  0  0  0  0  0  0  0
   -5.3367   -2.6340    0.0000 O   0  0  0  0  0  0  0  0  0  0  0  0
   -2.7400   -2.6200    0.0000 C   0  0  0  0  0  0  0  0  0  0  0  0
   -1.4400   -1.8800    0.0000 C   0  0  2  0  0  0  0  0  0  0  0  0
   -0.1400   -2.6200    0.0000 C   0  0  0  0  0  0  0  0  0  0  0  0
    1.1600   -1.8800    0.0000 C   0  0  0  0  0  0  0  0  0  0  0  0
    1.1600   -0.3800    0.0000 C   0  0  2  0  0  0  0  0  0  0  0  0
   -0.1400    0.3800    0.0000 C   0  0  2  0  0  0  0  0  0  0  0  0
   -0.1400    1.8800    0.0000 C   0  0  0  0  0  0  0  0  0  0  0  0
    1.1600    2.6200    0.0000 C   0  0  0  0  0  0  0  0  0  0  0  0
    2.4600    1.8800    0.0000 C   0  0  1  0  0  0  0  0  0  0  0  0
    2.6129    3.3722    0.0000 C   0  0  0  0  0  0  0  0  0  0  0  0
    2.4600    0.3800    0.0000 C   0  0  1  0  0  0  0  0  0  0  0  0
    3.8800   -0.0900    0.0000 C   0  0  0  0  0  0  0  0  0  0  0  0
    4.7600    1.1200    0.0000 C   0  0  0  0  0  0  0  0  0  0  0  0
    3.8800    2.3400    0.0000 C   0  0  1  0  0  0  0  0  0  0  0  0
    5.1810    3.0866    0.0000 C   0  0  0  0  0  0  0  0  0  0  0  0
    3.9323    0.8409    0.0000 O   0  0  0  0  0  0  0  0  0  0  0  0
   -4.0400    1.1200    0.0000 O   0  0  0  0  0  0  0  0  0  0  0  0
  2  1  1  1  0  0  0
  2  3  1  0  0  0  0
  3  4  1  0  0  0  0
  4  5  1  0  0  0  0
  5  6  2  0  0  0  0
  5  7  1  0  0  0  0
  8  7  1  1  0  0  0
  2  8  1  0  0  0  0
  8  9  1  0  0  0  0
  9 10  1  0  0  0  0
 11 10  1  6  0  0  0
 11 12  1  0  0  0  0
  2 12  1  0  0  0  0
 12 13  1  1  0  0  0
 13 14  1  0  0  0  0
 14 15  1  0  0  0  0
 15 16  1  1  0  0  0
 15 17  1  0  0  0  0
 11 17  1  0  0  0  0
 17 18  1  1  0  0  0
 18 19  1  0  0  0  0
 20 19  1  6  0  0  0
 15 20  1  0  0  0  0
 20 21  1  0  0  0  0
 20 22  1  1  0  0  0
  4 23  1  0  0  0  0
 23  3  1  0  0  0  0
M  END
> <InChI>
InChI=1S/C20H30O3/c1-18-8-6-14-12(13(18)7-9-19(18,2)22)5-4-11-10-15(21)16-17(23-16)20(11,14)3/h11-14,16-17,22H,4-10H2,1-3H3/t11-,12-,13-,14-,16?,17?,18-,19-,20-/m0/s1

> <InChIKey>
WVNWFVUVUNGLEH-STJRJXILSA-N

> <SMILES>
C[C@]12C3C(C(=O)C[C@@H]1CC[C@@H]4[C@@H]2CC[C@@]5(C)[C@H]4CC[C@]5(C)O)O3

> <Synonyms>


> <PUBCHEM_CID>


> <Molecular_formula>
C20H30O3

> <Major_Isotope_Mass>
318.21949482

> <ALogP>
2.6209999999999964

> <Lipinski_Violations>
0

> <Insecticide_Likeness_Violations>
0

> <Post_Em_Herbicide_Likeness_Violations>
0

> <Metabolite_ID>
BTM00007

> <Reaction>
Epoxidation of alkene

> <Reaction_ID>
BTMR0110

> <Enzyme(s)>
CYP1A2
CYP2B6
CYP2B6
CYP2C8
CYP2C9
CYP2C19
CYP2D6
CYP2E1
CYP3A4

> <Biosystem>
HUMAN

> <Precursor_ID>


> <Precursor_SMILES>
C[C@]12C=CC(=O)C[C@@H]1CC[C@@H]3[C@@H]2CC[C@@]4(C)[C@H]3CC[C@]4(C)O

> <Precursor_InChI>
InChI=1S/C20H30O2/c1-18-9-6-14(21)12-13(18)4-5-15-16(18)7-10-19(2)17(15)8-11-20(19,3)22/h6,9,13,15-17,22H,4-5,7-8,10-12H2,1-3H3/t13-,15+,16-,17-,18-,19-,20-/m0/s1

> <Precursor_InChIKey>
JRNSSSJKIGAFCT-YDSAWKJFSA-N

> <Precursor_ALogP>


> <Precursor_Major_Isotope_Mass>
302.2245

$$$$
BTM00008
  CDK     09122622102D

 23 26  0  0  1  0  0  0  0  0999 V2000
   -1.6800    1.1900    0.0000 C   0  0  0  0  0  0  0  0  0  0  0  0
   -1.6800   -0.3100    0.0000 C   0  0  2  0  0  0  0  0  0  0  0  0
   -2.9800    0.4400    0.0000 C   0  0  0  0  0  0  0  0  0  0  0  0
   -4.2800   -0.3100    0.0000 C   0  0  0  0  0  0  0  0  0  0  0  0
   -4.2800   -1.8100    0.0000 C   0  0  0  0  0  0  0  0  0  0  0  0
   -5.5789   -2.5602    0.0000 O   0  0  0  0  0  0  0  0  0  0  0  0
   -2.9800   -2.5600    0.0000 C   0  0  0  0  0  0  0  0  0  0  0  0
   -1.6800   -1.8100    0.0000 C   0  0  2  0  0  0  0  0  0  0  0  0
   -0.3800   -2.5600    0.0000 C   0  0  0  0  0  0  0  0  0  0  0  0
    0.9200   -1.8100    0.0000 C   0  0  0  0  0  0  0  0  0  0  0  0
    0.9200   -0.3100    0.0000 C   0  0  2  0  0  0  0  0  0  0  0  0
   -0.3800    0.4400    0.0000 C   0  0  2  0  0  0  0  0  0  0  0  0
   -0.3800    1.9400    0.0000 C   0  0  0  0  0  0  0  0  0  0  0  0
    0.9200    2.6900    0.0000 C   0  0  0  0  0  0  0  0  0  0  0  0
    2.2200    1.9400    0.0000 C   0  0  1  0  0  0  0  0  0  0  0  0
    2.3787    3.4316    0.0000 C   0  0  0  0  0  0  0  0  0  0  0  0
    2.2200    0.4400    0.0000 C   0  0  1  0  0  0  0  0  0  0  0  0
    3.6500   -0.0200    0.0000 C   0  0  0  0  0  0  0  0  0  0  0  0
    4.5300    1.1900    0.0000 C   0  0  0  0  0  0  0  0  0  0  0  0
    3.6500    2.4000    0.0000 C   0  0  1  0  0  0  0  0  0  0  0  0
    4.9495    3.1491    0.0000 C   0  0  0  0  0  0  0  0  0  0  0  0
    3.6962    0.9007    0.0000 O   0  0  0  0  0  0  0  0  0  0  0  0
   -0.3800   -4.0600    0.0000 O   0  0  0  0  0  0  0  0  0  0  0  0
  2  1  1  1  0  0  0
  2  3  1  0  0  0  0
  3  4  2  0  0  0  0
  4  5  1  0  0  0  0
  5  6  2  0  0  0  0
  5  7  1  0  0  0  0
  8  7  1  1  0  0  0
  2  8  1  0  0  0  0
  8  9  1  0  0  0  0
  9 10  1  0  0  0  0
 11 10  1  6  0  0  0
 11 12  1  0  0  0  0
  2 12  1  0  0  0  0
 12 13  1  1  0  0  0
 13 14  1  0  0  0  0
 14 15  1  0  0  0  0
 15 16  1  1  0  0  0
 15 17  1  0  0  0  0
 11 17  1  0  0  0  0
 17 18  1  1  0  0  0
 18 19  1  0  0  0  0
 20 19  1  6  0  0  0
 15 20  1  0  0  0  0
 20 21  1  0  0  0  0
 20 22  1  1  0  0  0
 23  9  1  0  0  0  0
M  END
> <InChI>
InChI=1S/C20H30O3/c1-18-7-4-12(21)10-16(18)17(22)11-13-14(18)5-8-19(2)15(13)6-9-20(19,3)23/h4,7,13-17,22-23H,5-6,8-11H2,1-3H3/t13-,14+,15+,16-,17?,18-,19+,20+/m1/s1

> <InChIKey>
OLAIEPHVWQYQBP-UHCPPXBMSA-N

> <SMILES>
C[C@]12C=CC(=O)C[C@@H]1C(C[C@@H]3[C@@H]2CC[C@@]4(C)[C@H]3CC[C@]4(C)O)O

> <Synonyms>


> <PUBCHEM_CID>


> <Molecular_formula>
C20H30O3

> <Major_Isotope_Mass>
318.21949481999997

> <ALogP>
2.1742999999999997

> <Lipinski_Violations>
0

> <Insecticide_Likeness_Violations>
0

> <Post_Em_Herbicide_Likeness_Violations>
0

> <Metabolite_ID>
BTM00008

> <Reaction>
6-Hydroxylation of sterol

> <Reaction_ID>
BTMR0402

> <Enzyme(s)>
CYP2A6
CYP2B6
CYP2C8
CYP2C9
CYP2C19
CYP2D6
CYP3A4

> <Biosystem>
HUMAN

> <Precursor_ID>


> <Precursor_SMILES>
C[C@]12C=CC(=O)C[C@@H]1CC[C@@H]3[C@@H]2CC[C@@]4(C)[C@H]3CC[C@]4(C)O

> <Precursor_InChI>
InChI=1S/C20H30O2/c1-18-9-6-14(21)12-13(18)4-5-15-16(18)7-10-19(2)17(15)8-11-20(19,3)22/h6,9,13,15-17,22H,4-5,7-8,10-12H2,1-3H3/t13-,15+,16-,17-,18-,19-,20-/m0/s1

> <Precursor_InChIKey>
JRNSSSJKIGAFCT-YDSAWKJFSA-N

> <Precursor_ALogP>


> <Precursor_Major_Isotope_Mass>
302.2245

$$$$
BTM00009
  CDK     09122622102D

 23 26  0  0  1  0  0  0  0  0999 V2000
   -1.8400    0.7800    0.0000 C   0  0  0  0  0  0  0  0  0  0  0  0
   -1.8400   -0.7200    0.0000 C   0  0  2  0  0  0  0  0  0  0  0  0
   -3.1400    0.0300    0.0000 C   0  0  0  0  0  0  0  0  0  0  0  0
   -4.4400   -0.7200    0.0000 C   0  0  0  0  0  0  0  0  0  0  0  0
   -4.4400   -2.2200    0.0000 C   0  0  0  0  0  0  0  0  0  0  0  0
   -5.7389   -2.9702    0.0000 O   0  0  0  0  0  0  0  0  0  0  0  0
   -3.1400   -2.9700    0.0000 C   0  0  0  0  0  0  0  0  0  0  0  0
   -1.8400   -2.2200    0.0000 C   0  0  2  0  0  0  0  0  0  0  0  0
   -0.5400   -2.9700    0.0000 C   0  0  0  0  0  0  0  0  0  0  0  0
    0.7600   -2.2200    0.0000 C   0  0  0  0  0  0  0  0  0  0  0  0
    0.7600   -0.7200    0.0000 C   0  0  2  0  0  0  0  0  0  0  0  0
   -0.5400    0.0300    0.0000 C   0  0  2  0  0  0  0  0  0  0  0  0
   -0.5400    1.5300    0.0000 C   0  0  0  0  0  0  0  0  0  0  0  0
    0.7600    2.2800    0.0000 C   0  0  0  0  0  0  0  0  0  0  0  0
    2.0600    1.5300    0.0000 C   0  0  1  0  0  0  0  0  0  0  0  0
    2.2172    3.0217    0.0000 C   0  0  0  0  0  0  0  0  0  0  0  0
    2.0600    0.0300    0.0000 C   0  0  1  0  0  0  0  0  0  0  0  0
    3.4800   -0.4400    0.0000 C   0  0  0  0  0  0  0  0  0  0  0  0
    4.3700    0.7800    0.0000 C   0  0  0  0  0  0  0  0  0  0  0  0
    3.4800    1.9900    0.0000 C   0  0  1  0  0  0  0  0  0  0  0  0
    4.7763    2.7447    0.0000 C   0  0  0  0  0  0  0  0  0  0  0  0
    3.5277    0.4908    0.0000 O   0  0  0  0  0  0  0  0  0  0  0  0
   -3.1390    1.5300    0.0000 O   0  0  0  0  0  0  0  0  0  0  0  0
  2  1  1  1  0  0  0
  2  3  1  0  0  0  0
  3  4  2  0  0  0  0
  4  5  1  0  0  0  0
  5  6  2  0  0  0  0
  5  7  1  0  0  0  0
  8  7  1  1  0  0  0
  2  8  1  0  0  0  0
  8  9  1  0  0  0  0
  9 10  1  0  0  0  0
 11 10  1  6  0  0  0
 11 12  1  0  0  0  0
  2 12  1  0  0  0  0
 12 13  1  1  0  0  0
 13 14  1  0  0  0  0
 14 15  1  0  0  0  0
 15 16  1  1  0  0  0
 15 17  1  0  0  0  0
 11 17  1  0  0  0  0
 17 18  1  1  0  0  0
 18 19  1  0  0  0  0
 20 19  1  6  0  0  0
 15 20  1  0  0  0  0
 20 21  1  0  0  0  0
 20 22  1  1  0  0  0
 23  1  1  0  0  0  0
M  END
> <InChI>
InChI=1S/C20H30O3/c1-18-8-6-17-15(16(18)7-9-19(18,2)23)4-3-13-11-14(22)5-10-20(13,17)12-21/h5,10,13,15-17,21,23H,3-4,6-9,11-12H2,1-2H3/t13-,15-,16-,17-,18-,19-,20+/m0/s1

> <InChIKey>
HDCMDIDEKXEFAS-YFCAARFXSA-N

> <SMILES>
C([C@]12C=CC(=O)C[C@@H]1CC[C@@H]3[C@@H]2CC[C@@]4(C)[C@H]3CC[C@]4(C)O)O

> <Synonyms>


> <PUBCHEM_CID>


> <Molecular_formula>
C20H30O3

> <Major_Isotope_Mass>
318.21949482

> <ALogP>
2.2529999999999992

> <Lipinski_Violations>
0

> <Insecticide_Likeness_Violations>
0

> <Post_Em_Herbicide_Likeness_Violations>
0

> <Metabolite_ID>
BTM00009

> <Reaction>
Hydroxylation of methyl carbon adjacent to aliphatic ring

> <Reaction_ID>
BTMR0054

> <Enzyme(s)>
CYP2B6
CYP2C8
CYP2C9
CYP2C19
CYP2D6
CYP3A4

> <Biosystem>
HUMAN

> <Precursor_ID>


> <Precursor_SMILES>
C[C@]12C=CC(=O)C[C@@H]1CC[C@@H]3[C@@H]2CC[C@@]4(C)[C@H]3CC[C@]4(C)O

> <Precursor_InChI>
InChI=1S/C20H30O2/c1-18-9-6-14(21)12-13(18)4-5-15-16(18)7-10-19(2)17(15)8-11-20(19,3)22/h6,9,13,15-17,22H,4-5,7-8,10-12H2,1-3H3/t13-,15+,16-,17-,18-,19-,20-/m0/s1

> <Precursor_InChIKey>
JRNSSSJKIGAFCT-YDSAWKJFSA-N

> <Precursor_ALogP>


> <Precursor_Major_Isotope_Mass>
302.2245

$$$$
BTM00010
  CDK     09122622102D

 23 26  0  0  1  0  0  0  0  0999 V2000
   -1.8400    0.7800    0.0000 C   0  0  0  0  0  0  0  0  0  0  0  0
   -1.8400   -0.7200    0.0000 C   0  0  2  0  0  0  0  0  0  0  0  0
   -3.1400    0.0300    0.0000 C   0  0  0  0  0  0  0  0  0  0  0  0
   -4.4400   -0.7200    0.0000 C   0  0  0  0  0  0  0  0  0  0  0  0
   -4.4400   -2.2200    0.0000 C   0  0  0  0  0  0  0  0  0  0  0  0
   -5.7389   -2.9702    0.0000 O   0  0  0  0  0  0  0  0  0  0  0  0
   -3.1400   -2.9700    0.0000 C   0  0  0  0  0  0  0  0  0  0  0  0
   -1.8400   -2.2200    0.0000 C   0  0  2  0  0  0  0  0  0  0  0  0
   -0.5400   -2.9700    0.0000 C   0  0  0  0  0  0  0  0  0  0  0  0
    0.7600   -2.2200    0.0000 C   0  0  0  0  0  0  0  0  0  0  0  0
    0.7600   -0.7200    0.0000 C   0  0  2  0  0  0  0  0  0  0  0  0
   -0.5400    0.0300    0.0000 C   0  0  2  0  0  0  0  0  0  0  0  0
   -0.5400    1.5300    0.0000 C   0  0  0  0  0  0  0  0  0  0  0  0
    0.7600    2.2800    0.0000 C   0  0  0  0  0  0  0  0  0  0  0  0
    2.0600    1.5300    0.0000 C   0  0  1  0  0  0  0  0  0  0  0  0
    2.2172    3.0217    0.0000 C   0  0  0  0  0  0  0  0  0  0  0  0
    2.0600    0.0300    0.0000 C   0  0  1  0  0  0  0  0  0  0  0  0
    3.4800   -0.4400    0.0000 C   0  0  0  0  0  0  0  0  0  0  0  0
    4.3700    0.7800    0.0000 C   0  0  0  0  0  0  0  0  0  0  0  0
    3.4800    1.9900    0.0000 C   0  0  1  0  0  0  0  0  0  0  0  0
    4.7763    2.7447    0.0000 C   0  0  0  0  0  0  0  0  0  0  0  0
    3.5277    0.4908    0.0000 O   0  0  0  0  0  0  0  0  0  0  0  0
    6.0781    1.9994    0.0000 O   0  0  0  0  0  0  0  0  0  0  0  0
  2  1  1  1  0  0  0
  2  3  1  0  0  0  0
  3  4  2  0  0  0  0
  4  5  1  0  0  0  0
  5  6  2  0  0  0  0
  5  7  1  0  0  0  0
  8  7  1  1  0  0  0
  2  8  1  0  0  0  0
  8  9  1  0  0  0  0
  9 10  1  0  0  0  0
 11 10  1  6  0  0  0
 11 12  1  0  0  0  0
  2 12  1  0  0  0  0
 12 13  1  1  0  0  0
 13 14  1  0  0  0  0
 14 15  1  0  0  0  0
 15 16  1  1  0  0  0
 15 17  1  0  0  0  0
 11 17  1  0  0  0  0
 17 18  1  1  0  0  0
 18 19  1  0  0  0  0
 20 19  1  6  0  0  0
 15 20  1  0  0  0  0
 20 21  1  0  0  0  0
 20 22  1  1  0  0  0
 23 21  1  0  0  0  0
M  END
> <InChI>
InChI=1S/C20H30O3/c1-18-8-5-14(22)11-13(18)3-4-15-16(18)6-9-19(2)17(15)7-10-20(19,23)12-21/h5,8,13,15-17,21,23H,3-4,6-7,9-12H2,1-2H3/t13-,15+,16-,17-,18-,19-,20+/m0/s1

> <InChIKey>
WWEWNKLBMPGSTQ-FGVZMBKRSA-N

> <SMILES>
C[C@]12C=CC(=O)C[C@@H]1CC[C@@H]3[C@@H]2CC[C@@]4(C)[C@H]3CC[C@]4(CO)O

> <Synonyms>


> <PUBCHEM_CID>


> <Molecular_formula>
C20H30O3

> <Major_Isotope_Mass>
318.21949482

> <ALogP>
2.455499999999999

> <Lipinski_Violations>
0

> <Insecticide_Likeness_Violations>
0

> <Post_Em_Herbicide_Likeness_Violations>
0

> <Metabolite_ID>
BTM00010

> <Reaction>
Hydroxylation of methyl carbon adjacent to aliphatic ring

> <Reaction_ID>
BTMR0054

> <Enzyme(s)>
CYP2B6
CYP2C8
CYP2C9
CYP2C19
CYP2D6
CYP3A4

> <Biosystem>
HUMAN

> <Precursor_ID>


> <Precursor_SMILES>
C[C@]12C=CC(=O)C[C@@H]1CC[C@@H]3[C@@H]2CC[C@@]4(C)[C@H]3CC[C@]4(C)O

> <Precursor_InChI>
InChI=1S/C20H30O2/c1-18-9-6-14(21)12-13(18)4-5-15-16(18)7-10-19(2)17(15)8-11-20(19,3)22/h6,9,13,15-17,22H,4-5,7-8,10-12H2,1-3H3/t13-,15+,16-,17-,18-,19-,20-/m0/s1

> <Precursor_InChIKey>
JRNSSSJKIGAFCT-YDSAWKJFSA-N

> <Precursor_ALogP>


> <Precursor_Major_Isotope_Mass>
302.2245

$$$$
BTM00011
  CDK     09122622102D

 23 26  0  0  1  0  0  0  0  0999 V2000
   -1.8400    0.7800    0.0000 C   0  0  0  0  0  0  0  0  0  0  0  0
   -1.8400   -0.7200    0.0000 C   0  0  2  0  0  0  0  0  0  0  0  0
   -3.1400    0.0300    0.0000 C   0  0  0  0  0  0  0  0  0  0  0  0
   -4.4400   -0.7200    0.0000 C   0  0  0  0  0  0  0  0  0  0  0  0
   -4.4400   -2.2200    0.0000 C   0  0  0  0  0  0  0  0  0  0  0  0
   -5.7389   -2.9702    0.0000 O   0  0  0  0  0  0  0  0  0  0  0  0
   -3.1400   -2.9700    0.0000 C   0  0  0  0  0  0  0  0  0  0  0  0
   -1.8400   -2.2200    0.0000 C   0  0  2  0  0  0  0  0  0  0  0  0
   -0.5400   -2.9700    0.0000 C   0  0  0  0  0  0  0  0  0  0  0  0
    0.7600   -2.2200    0.0000 C   0  0  0  0  0  0  0  0  0  0  0  0
    0.7600   -0.7200    0.0000 C   0  0  2  0  0  0  0  0  0  0  0  0
   -0.5400    0.0300    0.0000 C   0  0  2  0  0  0  0  0  0  0  0  0
   -0.5400    1.5300    0.0000 C   0  0  0  0  0  0  0  0  0  0  0  0
    0.7600    2.2800    0.0000 C   0  0  0  0  0  0  0  0  0  0  0  0
    2.0600    1.5300    0.0000 C   0  0  1  0  0  0  0  0  0  0  0  0
    2.2172    3.0217    0.0000 C   0  0  0  0  0  0  0  0  0  0  0  0
    2.0600    0.0300    0.0000 C   0  0  1  0  0  0  0  0  0  0  0  0
    3.4800   -0.4400    0.0000 C   0  0  0  0  0  0  0  0  0  0  0  0
    4.3700    0.7800    0.0000 C   0  0  0  0  0  0  0  0  0  0  0  0
    3.4800    1.9900    0.0000 C   0  0  1  0  0  0  0  0  0  0  0  0
    4.7763    2.7447    0.0000 C   0  0  0  0  0  0  0  0  0  0  0  0
    3.1151    3.4449    0.0000 O   0  0  0  0  0  0  0  0  0  0  0  0
    1.0039    3.9038    0.0000 O   0  0  0  0  0  0  0  0  0  0  0  0
  2  1  1  1  0  0  0
  2  3  1  0  0  0  0
  3  4  2  0  0  0  0
  4  5  1  0  0  0  0
  5  6  2  0  0  0  0
  5  7  1  0  0  0  0
  8  7  1  1  0  0  0
  2  8  1  0  0  0  0
  8  9  1  0  0  0  0
  9 10  1  0  0  0  0
 11 10  1  6  0  0  0
 11 12  1  0  0  0  0
  2 12  1  0  0  0  0
 12 13  1  1  0  0  0
 13 14  1  0  0  0  0
 14 15  1  0  0  0  0
 15 16  1  1  0  0  0
 15 17  1  0  0  0  0
 11 17  1  0  0  0  0
 17 18  1  1  0  0  0
 18 19  1  0  0  0  0
 19 20  1  0  0  0  0
 15 20  1  0  0  0  0
 20 21  1  6  0  0  0
 20 22  1  1  0  0  0
 23 16  1  0  0  0  0
M  END
> <InChI>
InChI=1S/C20H30O3/c1-18-8-5-14(22)11-13(18)3-4-15-16(18)7-10-20(12-21)17(15)6-9-19(20,2)23/h5,8,13,15-17,21,23H,3-4,6-7,9-12H2,1-2H3/t13-,15+,16-,17-,18-,19-,20+/m0/s1

> <InChIKey>
IMJMOXXEUGFUDY-FGVZMBKRSA-N

> <SMILES>
C[C@]12C=CC(=O)C[C@@H]1CC[C@@H]3[C@@H]2CC[C@@]4(CO)[C@H]3CC[C@]4(C)O

> <Synonyms>


> <PUBCHEM_CID>


> <Molecular_formula>
C20H30O3

> <Major_Isotope_Mass>
318.21949481999997

> <ALogP>
2.2529999999999992

> <Lipinski_Violations>
0

> <Insecticide_Likeness_Violations>
0

> <Post_Em_Herbicide_Likeness_Violations>
0

> <Metabolite_ID>
BTM00011

> <Reaction>
Hydroxylation of methyl carbon adjacent to aliphatic ring

> <Reaction_ID>
BTMR0054

> <Enzyme(s)>
CYP2B6
CYP2C8
CYP2C9
CYP2C19
CYP2D6
CYP3A4

> <Biosystem>
HUMAN

> <Precursor_ID>


> <Precursor_SMILES>
C[C@]12C=CC(=O)C[C@@H]1CC[C@@H]3[C@@H]2CC[C@@]4(C)[C@H]3CC[C@]4(C)O

> <Precursor_InChI>
InChI=1S/C20H30O2/c1-18-9-6-14(21)12-13(18)4-5-15-16(18)7-10-19(2)17(15)8-11-20(19,3)22/h6,9,13,15-17,22H,4-5,7-8,10-12H2,1-3H3/t13-,15+,16-,17-,18-,19-,20-/m0/s1

> <Precursor_InChIKey>
JRNSSSJKIGAFCT-YDSAWKJFSA-N

> <Precursor_ALogP>


> <Precursor_Major_Isotope_Mass>
302.2245

$$$$
BTM00012
  CDK     09122622102D

 22 25  0  0  1  0  0  0  0  0999 V2000
   -1.6800    1.1900    0.0000 C   0  0  0  0  0  0  0  0  0  0  0  0
   -1.6800   -0.3100    0.0000 C   0  0  2  0  0  0  0  0  0  0  0  0
   -2.9800    0.4400    0.0000 C   0  0  0  0  0  0  0  0  0  0  0  0
   -4.2800   -0.3100    0.0000 C   0  0  0  0  0  0  0  0  0  0  0  0
   -4.2800   -1.8100    0.0000 C   0  0  0  0  0  0  0  0  0  0  0  0
   -5.5789   -2.5602    0.0000 O   0  0  0  0  0  0  0  0  0  0  0  0
   -2.9800   -2.5600    0.0000 C   0  0  0  0  0  0  0  0  0  0  0  0
   -1.6800   -1.8100    0.0000 C   0  0  2  0  0  0  0  0  0  0  0  0
   -0.3800   -2.5600    0.0000 C   0  0  0  0  0  0  0  0  0  0  0  0
    0.9200   -1.8100    0.0000 C   0  0  0  0  0  0  0  0  0  0  0  0
    0.9200   -0.3100    0.0000 C   0  0  2  0  0  0  0  0  0  0  0  0
   -0.3800    0.4400    0.0000 C   0  0  2  0  0  0  0  0  0  0  0  0
   -0.3800    1.9400    0.0000 C   0  0  0  0  0  0  0  0  0  0  0  0
    0.9200    2.6900    0.0000 C   0  0  0  0  0  0  0  0  0  0  0  0
    2.2200    1.9400    0.0000 C   0  0  1  0  0  0  0  0  0  0  0  0
    2.3787    3.4316    0.0000 C   0  0  0  0  0  0  0  0  0  0  0  0
    2.2200    0.4400    0.0000 C   0  0  1  0  0  0  0  0  0  0  0  0
    3.6500   -0.0200    0.0000 C   0  0  0  0  0  0  0  0  0  0  0  0
    4.5300    1.1900    0.0000 C   0  0  0  0  0  0  0  0  0  0  0  0
    3.6500    2.4000    0.0000 C   0  0  1  0  0  0  0  0  0  0  0  0
    4.9495    3.1491    0.0000 C   0  0  0  0  0  0  0  0  0  0  0  0
    3.6962    0.9007    0.0000 O   0  0  0  0  0  0  0  0  0  0  0  0
  2  1  1  1  0  0  0
  2  3  1  0  0  0  0
  3  4  1  0  0  0  0
  4  5  1  0  0  0  0
  5  6  2  0  0  0  0
  5  7  1  0  0  0  0
  8  7  1  1  0  0  0
  2  8  1  0  0  0  0
  8  9  1  0  0  0  0
  9 10  1  0  0  0  0
 11 10  1  6  0  0  0
 11 12  1  0  0  0  0
  2 12  1  0  0  0  0
 12 13  1  1  0  0  0
 13 14  1  0  0  0  0
 14 15  1  0  0  0  0
 15 16  1  1  0  0  0
 15 17  1  0  0  0  0
 11 17  1  0  0  0  0
 17 18  1  1  0  0  0
 18 19  1  0  0  0  0
 20 19  1  6  0  0  0
 15 20  1  0  0  0  0
 20 21  1  0  0  0  0
 20 22  1  1  0  0  0
M  END
> <InChI>
InChI=1S/C20H32O2/c1-18-9-6-14(21)12-13(18)4-5-15-16(18)7-10-19(2)17(15)8-11-20(19,3)22/h13,15-17,22H,4-12H2,1-3H3/t13-,15+,16-,17-,18-,19-,20-/m0/s1

> <InChIKey>
WYZDXEKUWRCKOB-YDSAWKJFSA-N

> <SMILES>
C[C@]12CCC(=O)C[C@@H]1CC[C@@H]3[C@@H]2CC[C@@]4(C)[C@H]3CC[C@]4(C)O

> <Synonyms>


> <PUBCHEM_CID>


> <Molecular_formula>
C20H32O2

> <Major_Isotope_Mass>
304.240230264

> <ALogP>
3.366899999999996

> <Lipinski_Violations>
0

> <Insecticide_Likeness_Violations>
0

> <Post_Em_Herbicide_Likeness_Violations>
0

> <Metabolite_ID>
BTM00012

> <Reaction>
Reduction of alpha,beta-unsaturated carbon-carbon double bond adjacent to electron withdrawing group

> <Reaction_ID>
BTMR1209

> <Enzyme(s)>
EC 1.6.99.1

> <Biosystem>
GUTMICRO

> <Precursor_ID>


> <Precursor_SMILES>
C[C@]12C=CC(=O)C[C@@H]1CC[C@@H]3[C@@H]2CC[C@@]4(C)[C@H]3CC[C@]4(C)O

> <Precursor_InChI>
InChI=1S/C20H30O2/c1-18-9-6-14(21)12-13(18)4-5-15-16(18)7-10-19(2)17(15)8-11-20(19,3)22/h6,9,13,15-17,22H,4-5,7-8,10-12H2,1-3H3/t13-,15+,16-,17-,18-,19-,20-/m0/s1

> <Precursor_InChIKey>
JRNSSSJKIGAFCT-YDSAWKJFSA-N

> <Precursor_ALogP>


> <Precursor_Major_Isotope_Mass>
302.2245

$$$$
