BTM00001
  CDK     09122622082D

 22 25  0  0  1  0  0  0  0  0999 V2000
   -1.6800    1.1900    0.0000 C   0  0  0  0  0  0  0  0  0  0  0  0
   -1.6800   -0.3100    0.0000 C   0  0  2  0  0  0  0  0  0  0  0  0
   -2.9800    0.4400    0.0000 C   0  0  0  0  0  0  0  0  0  0  0  0
   -4.2800   -0.3100    0.0000 C   0  0  0  0  0  0  0  0  0  0  0  0
   -4.2800   -1.8100    0.0000 C   0  0  0  0  0  0  0  0  0  0  0  0
   -2.9800   -2.5600    0.0000 C   0  0  0  0  0  0  0  0  0  0  0  0
   -1.6800   -1.8100    0.0000 C   0  0  2  0  0  0  0  0  0  0  0  0
   -0.3800   -2.5600    0.0000 C   0  0  0  0  0  0  0  0  0  0  0  0
    0.9200   -1.8100    0.0000 C   0  0  0  0  0  0  0  0  0  0  0  0
    0.9200   -0.3100    0.0000 C   0  0  2  0  0  0  0  0  0  0  0  0
   -0.3800    0.4400    0.0000 C   0  0  2  0  0  0  0  0  0  0  0  0
   -0.3800    1.9400    0.0000 C   0  0  0  0  0  0  0  0  0  0  0  0
    0.9200    2.6900    0.0000 C   0  0  0  0  0  0  0  0  0  0  0  0
    2.2200    1.9400    0.0000 C   0  0  1  0  0  0  0  0  0  0  0  0
    2.3787    3.4316    0.0000 C   0  0  0  0  0  0  0  0  0  0  0  0
    2.2200    0.4400    0.0000 C   0  0  1  0  0  0  0  0  0  0  0  0
    3.6500   -0.0200    0.0000 C   0  0  0  0  0  0  0  0  0  0  0  0
    4.5300    1.1900    0.0000 C   0  0  0  0  0  0  0  0  0  0  0  0
    3.6500    2.4000    0.0000 C   0  0  1  0  0  0  0  0  0  0  0  0
    4.9495    3.1491    0.0000 C   0  0  0  0  0  0  0  0  0  0  0  0
    3.6962    0.9007    0.0000 O   0  0  0  0  0  0  0  0  0  0  0  0
   -1.6789    2.6902    0.0000 O   0  0  0  0  0  0  0  0  0  0  0  0
  2  1  1  1  0  0  0
  2  3  1  0  0  0  0
  3  4  1  0  0  0  0
  4  5  2  0  0  0  0
  5  6  1  0  0  0  0
  7  6  1  1  0  0  0
  2  7  1  0  0  0  0
  7  8  1  0  0  0  0
  8  9  1  0  0  0  0
 10  9  1  6  0  0  0
 10 11  1  0  0  0  0
  2 11  1  0  0  0  0
 11 12  1  1  0  0  0
 12 13  1  0  0  0  0
 13 14  1  0  0  0  0
 14 15  1  1  0  0  0
 14 16  1  0  0  0  0
 10 16  1  0  0  0  0
 16 17  1  1  0  0  0
 17 18  1  0  0  0  0
 19 18  1  6  0  0  0
 14 19  1  0  0  0  0
 19 20  1  0  0  0  0
 19 21  1  1  0  0  0
 22 12  1  0  0  0  0
M  END
> <InChI>
InChI=1S/C20H32O2/c1-18-10-5-4-6-13(18)7-8-14-15-9-11-20(3,22)19(15,2)12-16(21)17(14)18/h4-5,13-17,21-22H,6-12H2,1-3H3/t13-,14+,15+,16?,17-,18+,19+,20+/m1/s1

> <InChIKey>
STXXTEAKPGERCB-UXWPYJDISA-N

> <SMILES>
C[C@]12CC=CC[C@@H]1CC[C@@H]3[C@@H]2C(C[C@@]4(C)[C@H]3CC[C@]4(C)O)O

> <Synonyms>


> <PUBCHEM_CID>


> <Molecular_formula>
C20H32O2

> <Major_Isotope_Mass>
304.240230264

> <ALogP>
3.3156999999999988

> <Lipinski_Violations>
1

> <Insecticide_Likeness_Violations>
0

> <Post_Em_Herbicide_Likeness_Violations>
0

> <Metabolite_ID>
BTM00001

> <Reaction>
11-beta-Hydroxylation of sterol

> <Reaction_ID>
BTMR0406

> <Enzyme(s)>
EC 1.14.15.4

> <Biosystem>
HUMAN

> <Precursor_ID>


> <Precursor_SMILES>
C[C@]12CC=CC[C@@H]1CC[C@@H]3[C@@H]2CC[C@@]4(C)[C@H]3CC[C@]4(C)O

> <Precursor_InChI>
InChI=1S/C20H32O/c1-18-11-5-4-6-14(18)7-8-15-16(18)9-12-19(2)17(15)10-13-20(19,3)21/h4-5,14-17,21H,6-13H2,1-3H3/t14-,15-,16+,17+,18+,19+,20+/m1/s1

> <Precursor_InChIKey>
FRVHJVATKMIOPQ-PAPWGAKMSA-N

> <Precursor_ALogP>


> <Precursor_Major_Isotope_Mass>
288.2453

$$$$
BTM00002
  CDK     09122622082D

 33 37  0  0  1  0  0  0  0  0999 V2000
   -1.4856    0.7511    0.0000 C   0  0  0  0  0  0  0  0  0  0  0  0
   -1.4856   -0.7489    0.0000 C   0  0  2  0  0  0  0  0  0  0  0  0
   -2.7856    0.0011    0.0000 C   0  0  0  0  0  0  0  0  0  0  0  0
   -4.0856   -0.7489    0.0000 C   0  0  0  0  0  0  0  0  0  0  0  0
   -4.0856   -2.2489    0.0000 C   0  0  0  0  0  0  0  0  0  0  0  0
   -2.7856   -2.9989    0.0000 C   0  0  0  0  0  0  0  0  0  0  0  0
   -1.4856   -2.2489    0.0000 C   0  0  2  0  0  0  0  0  0  0  0  0
   -0.1856   -2.9989    0.0000 C   0  0  0  0  0  0  0  0  0  0  0  0
    1.1144   -2.2489    0.0000 C   0  0  0  0  0  0  0  0  0  0  0  0
    1.1144   -0.7489    0.0000 C   0  0  2  0  0  0  0  0  0  0  0  0
   -0.1856    0.0011    0.0000 C   0  0  2  0  0  0  0  0  0  0  0  0
   -0.1856    1.5011    0.0000 C   0  0  0  0  0  0  0  0  0  0  0  0
    1.1144    2.2511    0.0000 C   0  0  0  0  0  0  0  0  0  0  0  0
    2.4144    1.5011    0.0000 C   0  0  1  0  0  0  0  0  0  0  0  0
    2.5732    2.9927    0.0000 C   0  0  0  0  0  0  0  0  0  0  0  0
    2.4144    0.0011    0.0000 C   0  0  1  0  0  0  0  0  0  0  0  0
    3.8444   -0.4589    0.0000 C   0  0  0  0  0  0  0  0  0  0  0  0
    4.7244    0.7511    0.0000 C   0  0  0  0  0  0  0  0  0  0  0  0
    3.8444    1.9611    0.0000 C   0  0  1  0  0  0  0  0  0  0  0  0
    5.1440    2.7103    0.0000 C   0  0  0  0  0  0  0  0  0  0  0  0
    3.0424    3.7714    0.0000 O   0  0  0  0  0  0  0  0  0  0  0  0
    1.8365    6.5132    0.0000 O   0  0  0  0  0  0  0  0  0  0  0  0
    3.3273    6.3477    0.0000 C   0  0  0  0  0  0  0  0  0  0  0  0
    4.2305    7.5742    0.0000 C   0  0  0  0  0  0  0  0  0  0  0  0
    3.6322    8.9497    0.0000 O   0  0  0  0  0  0  0  0  0  0  0  0
    5.7264    7.4008    0.0000 C   0  0  0  0  0  0  0  0  0  0  0  0
    6.6177    8.6072    0.0000 O   0  0  0  0  0  0  0  0  0  0  0  0
    6.3253    6.0364    0.0000 C   0  0  0  0  0  0  0  0  0  0  0  0
    5.4363    4.8272    0.0000 O   0  0  0  0  0  0  0  0  0  0  0  0
    3.9262    4.9834    0.0000 C   0  0  0  0  0  0  0  0  0  0  0  0
    7.8162    5.8716    0.0000 C   0  0  0  0  0  0  0  0  0  0  0  0
    8.7044    7.0803    0.0000 O   0  0  0  0  0  0  0  0  0  0  0  0
    8.4189    4.4980    0.0000 O   0  0  0  0  0  0  0  0  0  0  0  0
  2  1  1  1  0  0  0
  2  3  1  0  0  0  0
  3  4  1  0  0  0  0
  4  5  2  0  0  0  0
  5  6  1  0  0  0  0
  7  6  1  1  0  0  0
  2  7  1  0  0  0  0
  7  8  1  0  0  0  0
  8  9  1  0  0  0  0
 10  9  1  6  0  0  0
 10 11  1  0  0  0  0
  2 11  1  0  0  0  0
 11 12  1  1  0  0  0
 12 13  1  0  0  0  0
 13 14  1  0  0  0  0
 14 15  1  1  0  0  0
 14 16  1  0  0  0  0
 10 16  1  0  0  0  0
 16 17  1  1  0  0  0
 17 18  1  0  0  0  0
 18 19  1  0  0  0  0
 14 19  1  0  0  0  0
 19 20  1  6  0  0  0
 19 21  1  1  0  0  0
 22 23  1  0  0  0  0
 23 24  1  0  0  0  0
 24 25  1  0  0  0  0
 24 26  1  0  0  0  0
 26 27  1  0  0  0  0
 26 28  1  0  0  0  0
 28 29  1  0  0  0  0
 29 30  1  0  0  0  0
 23 30  1  0  0  0  0
 30 21  1  0  0  0  0
 28 31  1  0  0  0  0
 31 32  1  0  0  0  0
 31 33  2  0  0  0  0
M  END
> <InChI>
InChI=1S/C26H40O7/c1-24-11-5-4-6-14(24)7-8-15-16(24)9-12-25(2)17(15)10-13-26(25,3)33-23-20(29)18(27)19(28)21(32-23)22(30)31/h4-5,14-21,23,27-29H,6-13H2,1-3H3,(H,30,31)/t14-,15-,16+,17+,18?,19?,20?,21?,23?,24+,25+,26+/m1/s1

> <InChIKey>
FCHSKWBEMZXALU-KXYHFGKXSA-N

> <SMILES>
C[C@]12CC=CC[C@@H]1CC[C@@H]3[C@@H]2CC[C@@]4(C)[C@H]3CC[C@]4(C)OC5OC(C(C(C5O)O)O)C(O)=O

> <Synonyms>


> <PUBCHEM_CID>


> <Molecular_formula>
C26H40O7

> <Major_Isotope_Mass>
464.27740362

> <ALogP>
2.947099999999998

> <Lipinski_Violations>
1

> <Insecticide_Likeness_Violations>
1

> <Post_Em_Herbicide_Likeness_Violations>
1

> <Metabolite_ID>
BTM00002

> <Reaction>
17-OH-Glucuronidation of sterol

> <Reaction_ID>
BTMR0163

> <Enzyme(s)>
EC 2.4.1.17

> <Biosystem>
HUMAN

> <Precursor_ID>


> <Precursor_SMILES>
C[C@]12CC=CC[C@@H]1CC[C@@H]3[C@@H]2CC[C@@]4(C)[C@H]3CC[C@]4(C)O

> <Precursor_InChI>
InChI=1S/C20H32O/c1-18-11-5-4-6-14(18)7-8-15-16(18)9-12-19(2)17(15)10-13-20(19,3)21/h4-5,14-17,21H,6-13H2,1-3H3/t14-,15-,16+,17+,18+,19+,20+/m1/s1

> <Precursor_InChIKey>
FRVHJVATKMIOPQ-PAPWGAKMSA-N

> <Precursor_ALogP>


> <Precursor_Major_Isotope_Mass>
288.2453

$$$$
BTM00003
  CDK     09122622082D

 22 25  0  0  1  0  0  0  0  0999 V2000
   -1.6800    1.1900    0.0000 C   0  0  0  0  0  0  0  0  0  0  0  0
   -1.6800   -0.3100    0.0000 C   0  0  2  0  0  0  0  0  0  0  0  0
   -2.9800    0.4400    0.0000 C   0  0  0  0  0  0  0  0  0  0  0  0
   -4.2800   -0.3100    0.0000 C   0  0  0  0  0  0  0  0  0  0  0  0
   -4.2800   -1.8100    0.0000 C   0  0  0  0  0  0  0  0  0  0  0  0
   -2.9800   -2.5600    0.0000 C   0  0  0  0  0  0  0  0  0  0  0  0
   -1.6800   -1.8100    0.0000 C   0  0  2  0  0  0  0  0  0  0  0  0
   -0.3800   -2.5600    0.0000 C   0  0  0  0  0  0  0  0  0  0  0  0
    0.9200   -1.8100    0.0000 C   0  0  0  0  0  0  0  0  0  0  0  0
    0.9200   -0.3100    0.0000 C   0  0  2  0  0  0  0  0  0  0  0  0
   -0.3800    0.4400    0.0000 C   0  0  2  0  0  0  0  0  0  0  0  0
   -0.3800    1.9400    0.0000 C   0  0  0  0  0  0  0  0  0  0  0  0
    0.9200    2.6900    0.0000 C   0  0  0  0  0  0  0  0  0  0  0  0
    2.2200    1.9400    0.0000 C   0  0  1  0  0  0  0  0  0  0  0  0
    2.3787    3.4316    0.0000 C   0  0  0  0  0  0  0  0  0  0  0  0
    2.2200    0.4400    0.0000 C   0  0  1  0  0  0  0  0  0  0  0  0
    3.6500   -0.0200    0.0000 C   0  0  0  0  0  0  0  0  0  0  0  0
    4.5300    1.1900    0.0000 C   0  0  0  0  0  0  0  0  0  0  0  0
    3.6500    2.4000    0.0000 C   0  0  1  0  0  0  0  0  0  0  0  0
    4.9495    3.1491    0.0000 C   0  0  0  0  0  0  0  0  0  0  0  0
    3.6962    0.9007    0.0000 O   0  0  0  0  0  0  0  0  0  0  0  0
    6.0300    1.1900    0.0000 O   0  0  0  0  0  0  0  0  0  0  0  0
  2  1  1  1  0  0  0
  2  3  1  0  0  0  0
  3  4  1  0  0  0  0
  4  5  2  0  0  0  0
  5  6  1  0  0  0  0
  7  6  1  1  0  0  0
  2  7  1  0  0  0  0
  7  8  1  0  0  0  0
  8  9  1  0  0  0  0
 10  9  1  6  0  0  0
 10 11  1  0  0  0  0
  2 11  1  0  0  0  0
 11 12  1  1  0  0  0
 12 13  1  0  0  0  0
 13 14  1  0  0  0  0
 14 15  1  1  0  0  0
 14 16  1  0  0  0  0
 10 16  1  0  0  0  0
 16 17  1  1  0  0  0
 17 18  1  0  0  0  0
 18 19  1  0  0  0  0
 14 19  1  0  0  0  0
 19 20  1  0  0  0  0
 19 21  1  1  0  0  0
 22 18  1  0  0  0  0
M  END
> <InChI>
InChI=1S/C20H32O2/c1-18-10-5-4-6-13(18)7-8-14-15(18)9-11-19(2)16(14)12-17(21)20(19,3)22/h4-5,13-17,21-22H,6-12H2,1-3H3/t13-,14-,15+,16+,17?,18+,19+,20+/m1/s1

> <InChIKey>
QRUABJZCKSUMPB-AHSUEGEQSA-N

> <SMILES>
C[C@]12CC=CC[C@@H]1CC[C@@H]3[C@@H]2CC[C@@]4(C)[C@H]3CC([C@]4(C)O)O

> <Synonyms>


> <PUBCHEM_CID>


> <Molecular_formula>
C20H32O2

> <Major_Isotope_Mass>
304.240230264

> <ALogP>
3.5181999999999984

> <Lipinski_Violations>
1

> <Insecticide_Likeness_Violations>
0

> <Post_Em_Herbicide_Likeness_Violations>
0

> <Metabolite_ID>
BTM00003

> <Reaction>
16-Hydroxylation of sterol

> <Reaction_ID>
BTMR0407

> <Enzyme(s)>
CYP1A2
CYP2A6
CYP2B6
CYP2C8
CYP2C9
CYP2C19
CYP2D6
CYP2E1
CYP3A4

> <Biosystem>
HUMAN

> <Precursor_ID>


> <Precursor_SMILES>
C[C@]12CC=CC[C@@H]1CC[C@@H]3[C@@H]2CC[C@@]4(C)[C@H]3CC[C@]4(C)O

> <Precursor_InChI>
InChI=1S/C20H32O/c1-18-11-5-4-6-14(18)7-8-15-16(18)9-12-19(2)17(15)10-13-20(19,3)21/h4-5,14-17,21H,6-13H2,1-3H3/t14-,15-,16+,17+,18+,19+,20+/m1/s1

> <Precursor_InChIKey>
FRVHJVATKMIOPQ-PAPWGAKMSA-N

> <Precursor_ALogP>


> <Precursor_Major_Isotope_Mass>
288.2453

$$$$
BTM00004
  CDK     09122622082D

 22 25  0  0  1  0  0  0  0  0999 V2000
   -1.6800    1.1900    0.0000 C   0  0  0  0  0  0  0  0  0  0  0  0
   -1.6800   -0.3100    0.0000 C   0  0  2  0  0  0  0  0  0  0  0  0
   -2.9800    0.4400    0.0000 C   0  0  0  0  0  0  0  0  0  0  0  0
   -4.2800   -0.3100    0.0000 C   0  0  0  0  0  0  0  0  0  0  0  0
   -4.2800   -1.8100    0.0000 C   0  0  0  0  0  0  0  0  0  0  0  0
   -2.9800   -2.5600    0.0000 C   0  0  0  0  0  0  0  0  0  0  0  0
   -1.6800   -1.8100    0.0000 C   0  0  2  0  0  0  0  0  0  0  0  0
   -0.3800   -2.5600    0.0000 C   0  0  0  0  0  0  0  0  0  0  0  0
    0.9200   -1.8100    0.0000 C   0  0  0  0  0  0  0  0  0  0  0  0
    0.9200   -0.3100    0.0000 C   0  0  2  0  0  0  0  0  0  0  0  0
   -0.3800    0.4400    0.0000 C   0  0  2  0  0  0  0  0  0  0  0  0
   -0.3800    1.9400    0.0000 C   0  0  0  0  0  0  0  0  0  0  0  0
    0.9200    2.6900    0.0000 C   0  0  0  0  0  0  0  0  0  0  0  0
    2.2200    1.9400    0.0000 C   0  0  1  0  0  0  0  0  0  0  0  0
    2.3787    3.4316    0.0000 C   0  0  0  0  0  0  0  0  0  0  0  0
    2.2200    0.4400    0.0000 C   0  0  1  0  0  0  0  0  0  0  0  0
    3.6500   -0.0200    0.0000 C   0  0  0  0  0  0  0  0  0  0  0  0
    4.5300    1.1900    0.0000 C   0  0  0  0  0  0  0  0  0  0  0  0
    3.6500    2.4000    0.0000 C   0  0  1  0  0  0  0  0  0  0  0  0
    4.9495    3.1491    0.0000 C   0  0  0  0  0  0  0  0  0  0  0  0
    3.6962    0.9007    0.0000 O   0  0  0  0  0  0  0  0  0  0  0  0
   -5.5789    0.4402    0.0000 O   0  0  0  0  0  0  0  0  0  0  0  0
  2  1  1  1  0  0  0
  2  3  1  0  0  0  0
  3  4  1  0  0  0  0
  4  5  2  0  0  0  0
  5  6  1  0  0  0  0
  7  6  1  1  0  0  0
  2  7  1  0  0  0  0
  7  8  1  0  0  0  0
  8  9  1  0  0  0  0
 10  9  1  6  0  0  0
 10 11  1  0  0  0  0
  2 11  1  0  0  0  0
 11 12  1  1  0  0  0
 12 13  1  0  0  0  0
 13 14  1  0  0  0  0
 14 15  1  1  0  0  0
 14 16  1  0  0  0  0
 10 16  1  0  0  0  0
 16 17  1  1  0  0  0
 17 18  1  0  0  0  0
 19 18  1  6  0  0  0
 14 19  1  0  0  0  0
 19 20  1  0  0  0  0
 19 21  1  1  0  0  0
 22  4  1  0  0  0  0
M  END
> <InChI>
InChI=1S/C20H32O2/c1-18-12-14(21)6-4-13(18)5-7-15-16(18)8-10-19(2)17(15)9-11-20(19,3)22/h6,13,15-17,21-22H,4-5,7-12H2,1-3H3/t13-,15-,16+,17+,18+,19+,20+/m1/s1

> <InChIKey>
DPCSTYDWFIHIEI-IHTGJJIASA-N

> <SMILES>
C[C@]12CC(=CC[C@@H]1CC[C@@H]3[C@@H]2CC[C@@]4(C)[C@H]3CC[C@]4(C)O)O

> <Synonyms>


> <PUBCHEM_CID>


> <Molecular_formula>
C20H32O2

> <Major_Isotope_Mass>
304.240230264

> <ALogP>
3.786999999999996

> <Lipinski_Violations>
1

> <Insecticide_Likeness_Violations>
0

> <Post_Em_Herbicide_Likeness_Violations>
0

> <Metabolite_ID>
BTM00004

> <Reaction>
2-Hydroxylation of sterol

> <Reaction_ID>
BTMR0398

> <Enzyme(s)>
CYP1A2
CYP2C19
CYP3A4

> <Biosystem>
HUMAN

> <Precursor_ID>


> <Precursor_SMILES>
C[C@]12CC=CC[C@@H]1CC[C@@H]3[C@@H]2CC[C@@]4(C)[C@H]3CC[C@]4(C)O

> <Precursor_InChI>
InChI=1S/C20H32O/c1-18-11-5-4-6-14(18)7-8-15-16(18)9-12-19(2)17(15)10-13-20(19,3)21/h4-5,14-17,21H,6-13H2,1-3H3/t14-,15-,16+,17+,18+,19+,20+/m1/s1

> <Precursor_InChIKey>
FRVHJVATKMIOPQ-PAPWGAKMSA-N

> <Precursor_ALogP>


> <Precursor_Major_Isotope_Mass>
288.2453

$$$$
BTM00005
  CDK     09122622082D

 22 25  0  0  1  0  0  0  0  0999 V2000
   -1.6800    1.1900    0.0000 C   0  0  0  0  0  0  0  0  0  0  0  0
   -1.6800   -0.3100    0.0000 C   0  0  2  0  0  0  0  0  0  0  0  0
   -2.9800    0.4400    0.0000 C   0  0  0  0  0  0  0  0  0  0  0  0
   -4.2800   -0.3100    0.0000 C   0  0  0  0  0  0  0  0  0  0  0  0
   -4.2800   -1.8100    0.0000 C   0  0  0  0  0  0  0  0  0  0  0  0
   -2.9800   -2.5600    0.0000 C   0  0  0  0  0  0  0  0  0  0  0  0
   -1.6800   -1.8100    0.0000 C   0  0  2  0  0  0  0  0  0  0  0  0
   -0.3800   -2.5600    0.0000 C   0  0  0  0  0  0  0  0  0  0  0  0
    0.9200   -1.8100    0.0000 C   0  0  0  0  0  0  0  0  0  0  0  0
    0.9200   -0.3100    0.0000 C   0  0  2  0  0  0  0  0  0  0  0  0
   -0.3800    0.4400    0.0000 C   0  0  2  0  0  0  0  0  0  0  0  0
   -0.3800    1.9400    0.0000 C   0  0  0  0  0  0  0  0  0  0  0  0
    0.9200    2.6900    0.0000 C   0  0  0  0  0  0  0  0  0  0  0  0
    2.2200    1.9400    0.0000 C   0  0  1  0  0  0  0  0  0  0  0  0
    2.3787    3.4316    0.0000 C   0  0  0  0  0  0  0  0  0  0  0  0
    2.2200    0.4400    0.0000 C   0  0  1  0  0  0  0  0  0  0  0  0
    3.6500   -0.0200    0.0000 C   0  0  0  0  0  0  0  0  0  0  0  0
    4.5300    1.1900    0.0000 C   0  0  0  0  0  0  0  0  0  0  0  0
    3.6500    2.4000    0.0000 C   0  0  1  0  0  0  0  0  0  0  0  0
    4.9495    3.1491    0.0000 C   0  0  0  0  0  0  0  0  0  0  0  0
    3.6962    0.9007    0.0000 O   0  0  0  0  0  0  0  0  0  0  0  0
   -2.9800   -4.0600    0.0000 O   0  0  0  0  0  0  0  0  0  0  0  0
  2  1  1  1  0  0  0
  2  3  1  0  0  0  0
  3  4  1  0  0  0  0
  4  5  2  0  0  0  0
  5  6  1  0  0  0  0
  6  7  1  0  0  0  0
  2  7  1  0  0  0  0
  7  8  1  1  0  0  0
  8  9  1  0  0  0  0
 10  9  1  6  0  0  0
 10 11  1  0  0  0  0
  2 11  1  0  0  0  0
 11 12  1  1  0  0  0
 12 13  1  0  0  0  0
 13 14  1  0  0  0  0
 14 15  1  1  0  0  0
 14 16  1  0  0  0  0
 10 16  1  0  0  0  0
 16 17  1  1  0  0  0
 17 18  1  0  0  0  0
 19 18  1  6  0  0  0
 14 19  1  0  0  0  0
 19 20  1  0  0  0  0
 19 21  1  1  0  0  0
 22  6  1  0  0  0  0
M  END
> <InChI>
InChI=1S/C20H32O2/c1-18-10-4-5-17(21)16(18)7-6-13-14(18)8-11-19(2)15(13)9-12-20(19,3)22/h4-5,13-17,21-22H,6-12H2,1-3H3/t13-,14+,15+,16+,17?,18-,19+,20+/m1/s1

> <InChIKey>
SGAANUXNHDGYDS-CANZNMKPSA-N

> <SMILES>
C[C@]12CC=CC([C@@H]1CC[C@@H]3[C@@H]2CC[C@@]4(C)[C@H]3CC[C@]4(C)O)O

> <Synonyms>


> <PUBCHEM_CID>


> <Molecular_formula>
C20H32O2

> <Major_Isotope_Mass>
304.240230264

> <ALogP>
3.4507000000000003

> <Lipinski_Violations>
0

> <Insecticide_Likeness_Violations>
0

> <Post_Em_Herbicide_Likeness_Violations>
0

> <Metabolite_ID>
BTM00005

> <Reaction>
4-Hydroxylation of sterol

> <Reaction_ID>
BTMR0400

> <Enzyme(s)>
CYP1A2
CYP3A4

> <Biosystem>
HUMAN

> <Precursor_ID>


> <Precursor_SMILES>
C[C@]12CC=CC[C@@H]1CC[C@@H]3[C@@H]2CC[C@@]4(C)[C@H]3CC[C@]4(C)O

> <Precursor_InChI>
InChI=1S/C20H32O/c1-18-11-5-4-6-14(18)7-8-15-16(18)9-12-19(2)17(15)10-13-20(19,3)21/h4-5,14-17,21H,6-13H2,1-3H3/t14-,15-,16+,17+,18+,19+,20+/m1/s1

> <Precursor_InChIKey>
FRVHJVATKMIOPQ-PAPWGAKMSA-N

> <Precursor_ALogP>


> <Precursor_Major_Isotope_Mass>
288.2453

$$$$
BTM00006
  CDK     09122622082D

 22 26  0  0  1  0  0  0  0  0999 V2000
   -2.5839    0.7418    0.0000 C   0  0  0  0  0  0  0  0  0  0  0  0
   -2.5839   -0.7582    0.0000 C   0  0  2  0  0  0  0  0  0  0  0  0
   -3.8829   -0.0082    0.0000 C   0  0  0  0  0  0  0  0  0  0  0  0
   -5.1820   -0.7582    0.0000 C   0  0  0  0  0  0  0  0  0  0  0  0
   -5.1820   -2.2582    0.0000 C   0  0  0  0  0  0  0  0  0  0  0  0
   -3.8829   -3.0082    0.0000 C   0  0  0  0  0  0  0  0  0  0  0  0
   -2.5839   -2.2582    0.0000 C   0  0  2  0  0  0  0  0  0  0  0  0
   -1.2848   -3.0082    0.0000 C   0  0  0  0  0  0  0  0  0  0  0  0
    0.0142   -2.2582    0.0000 C   0  0  0  0  0  0  0  0  0  0  0  0
    0.0142   -0.7582    0.0000 C   0  0  2  0  0  0  0  0  0  0  0  0
   -1.2848   -0.0082    0.0000 C   0  0  2  0  0  0  0  0  0  0  0  0
   -1.2848    1.4918    0.0000 C   0  0  0  0  0  0  0  0  0  0  0  0
    0.0142    2.2418    0.0000 C   0  0  0  0  0  0  0  0  0  0  0  0
    1.3132    1.4918    0.0000 C   0  0  1  0  0  0  0  0  0  0  0  0
    1.4700    2.9836    0.0000 C   0  0  0  0  0  0  0  0  0  0  0  0
    1.3132   -0.0082    0.0000 C   0  0  1  0  0  0  0  0  0  0  0  0
    2.7398   -0.4717    0.0000 C   0  0  0  0  0  0  0  0  0  0  0  0
    3.6215    0.7418    0.0000 C   0  0  0  0  0  0  0  0  0  0  0  0
    2.7398    1.9553    0.0000 C   0  0  1  0  0  0  0  0  0  0  0  0
    4.0389    2.7053    0.0000 C   0  0  0  0  0  0  0  0  0  0  0  0
    2.7922    0.4562    0.0000 O   0  0  0  0  0  0  0  0  0  0  0  0
   -6.4810   -1.5082    0.0000 O   0  0  0  0  0  0  0  0  0  0  0  0
  2  1  1  1  0  0  0
  2  3  1  0  0  0  0
  3  4  1  0  0  0  0
  4  5  1  0  0  0  0
  5  6  1  0  0  0  0
  7  6  1  1  0  0  0
  2  7  1  0  0  0  0
  7  8  1  0  0  0  0
  8  9  1  0  0  0  0
 10  9  1  6  0  0  0
 10 11  1  0  0  0  0
  2 11  1  0  0  0  0
 11 12  1  1  0  0  0
 12 13  1  0  0  0  0
 13 14  1  0  0  0  0
 14 15  1  1  0  0  0
 14 16  1  0  0  0  0
 10 16  1  0  0  0  0
 16 17  1  1  0  0  0
 17 18  1  0  0  0  0
 19 18  1  6  0  0  0
 14 19  1  0  0  0  0
 19 20  1  0  0  0  0
 19 21  1  1  0  0  0
  5 22  1  0  0  0  0
 22  4  1  0  0  0  0
M  END
> <InChI>
InChI=1S/C20H32O2/c1-18-11-17-16(22-17)10-12(18)4-5-13-14(18)6-8-19(2)15(13)7-9-20(19,3)21/h12-17,21H,4-11H2,1-3H3/t12-,13+,14-,15-,16?,17?,18-,19-,20-/m0/s1

> <InChIKey>
OQJKVXWRHOOEFJ-LSNTUUAJSA-N

> <SMILES>
C[C@]12CC3C(C[C@@H]1CC[C@@H]4[C@@H]2CC[C@@]5(C)[C@H]4CC[C@]5(C)O)O3

> <Synonyms>


> <PUBCHEM_CID>


> <Molecular_formula>
C20H32O2

> <Major_Isotope_Mass>
304.240230264

> <ALogP>
3.492399999999997

> <Lipinski_Violations>
1

> <Insecticide_Likeness_Violations>
0

> <Post_Em_Herbicide_Likeness_Violations>
0

> <Metabolite_ID>
BTM00006

> <Reaction>
Epoxidation of alkene

> <Reaction_ID>
BTMR0110

> <Enzyme(s)>
CYP1A2
CYP2B6
CYP2B6
CYP2C8
CYP2C9
CYP2C19
CYP2D6
CYP2E1
CYP3A4

> <Biosystem>
HUMAN

> <Precursor_ID>


> <Precursor_SMILES>
C[C@]12CC=CC[C@@H]1CC[C@@H]3[C@@H]2CC[C@@]4(C)[C@H]3CC[C@]4(C)O

> <Precursor_InChI>
InChI=1S/C20H32O/c1-18-11-5-4-6-14(18)7-8-15-16(18)9-12-19(2)17(15)10-13-20(19,3)21/h4-5,14-17,21H,6-13H2,1-3H3/t14-,15-,16+,17+,18+,19+,20+/m1/s1

> <Precursor_InChIKey>
FRVHJVATKMIOPQ-PAPWGAKMSA-N

> <Precursor_ALogP>


> <Precursor_Major_Isotope_Mass>
288.2453

$$$$
BTM00007
  CDK     09122622082D

 22 25  0  0  1  0  0  0  0  0999 V2000
   -1.6800    1.1900    0.0000 C   0  0  0  0  0  0  0  0  0  0  0  0
   -1.6800   -0.3100    0.0000 C   0  0  2  0  0  0  0  0  0  0  0  0
   -2.9800    0.4400    0.0000 C   0  0  0  0  0  0  0  0  0  0  0  0
   -4.2800   -0.3100    0.0000 C   0  0  0  0  0  0  0  0  0  0  0  0
   -4.2800   -1.8100    0.0000 C   0  0  0  0  0  0  0  0  0  0  0  0
   -2.9800   -2.5600    0.0000 C   0  0  0  0  0  0  0  0  0  0  0  0
   -1.6800   -1.8100    0.0000 C   0  0  2  0  0  0  0  0  0  0  0  0
   -0.3800   -2.5600    0.0000 C   0  0  0  0  0  0  0  0  0  0  0  0
    0.9200   -1.8100    0.0000 C   0  0  0  0  0  0  0  0  0  0  0  0
    0.9200   -0.3100    0.0000 C   0  0  2  0  0  0  0  0  0  0  0  0
   -0.3800    0.4400    0.0000 C   0  0  2  0  0  0  0  0  0  0  0  0
   -0.3800    1.9400    0.0000 C   0  0  0  0  0  0  0  0  0  0  0  0
    0.9200    2.6900    0.0000 C   0  0  0  0  0  0  0  0  0  0  0  0
    2.2200    1.9400    0.0000 C   0  0  1  0  0  0  0  0  0  0  0  0
    2.3787    3.4316    0.0000 C   0  0  0  0  0  0  0  0  0  0  0  0
    2.2200    0.4400    0.0000 C   0  0  1  0  0  0  0  0  0  0  0  0
    3.6500   -0.0200    0.0000 C   0  0  0  0  0  0  0  0  0  0  0  0
    4.5300    1.1900    0.0000 C   0  0  0  0  0  0  0  0  0  0  0  0
    3.6500    2.4000    0.0000 C   0  0  1  0  0  0  0  0  0  0  0  0
    4.9495    3.1491    0.0000 C   0  0  0  0  0  0  0  0  0  0  0  0
    3.6962    0.9007    0.0000 O   0  0  0  0  0  0  0  0  0  0  0  0
   -0.3800   -4.0600    0.0000 O   0  0  0  0  0  0  0  0  0  0  0  0
  2  1  1  1  0  0  0
  2  3  1  0  0  0  0
  3  4  1  0  0  0  0
  4  5  2  0  0  0  0
  5  6  1  0  0  0  0
  7  6  1  1  0  0  0
  2  7  1  0  0  0  0
  7  8  1  0  0  0  0
  8  9  1  0  0  0  0
 10  9  1  6  0  0  0
 10 11  1  0  0  0  0
  2 11  1  0  0  0  0
 11 12  1  1  0  0  0
 12 13  1  0  0  0  0
 13 14  1  0  0  0  0
 14 15  1  1  0  0  0
 14 16  1  0  0  0  0
 10 16  1  0  0  0  0
 16 17  1  1  0  0  0
 17 18  1  0  0  0  0
 19 18  1  6  0  0  0
 14 19  1  0  0  0  0
 19 20  1  0  0  0  0
 19 21  1  1  0  0  0
 22  8  1  0  0  0  0
M  END
> <InChI>
InChI=1S/C20H32O2/c1-18-9-5-4-6-16(18)17(21)12-13-14(18)7-10-19(2)15(13)8-11-20(19,3)22/h4-5,13-17,21-22H,6-12H2,1-3H3/t13-,14+,15+,16-,17?,18-,19+,20+/m1/s1

> <InChIKey>
LYKUBSRDVYHRRV-UHCPPXBMSA-N

> <SMILES>
C[C@]12CC=CC[C@@H]1C(C[C@@H]3[C@@H]2CC[C@@]4(C)[C@H]3CC[C@]4(C)O)O

> <Synonyms>


> <PUBCHEM_CID>


> <Molecular_formula>
C20H32O2

> <Major_Isotope_Mass>
304.240230264

> <ALogP>
3.3156999999999988

> <Lipinski_Violations>
0

> <Insecticide_Likeness_Violations>
0

> <Post_Em_Herbicide_Likeness_Violations>
0

> <Metabolite_ID>
BTM00007

> <Reaction>
6-Hydroxylation of sterol

> <Reaction_ID>
BTMR0402

> <Enzyme(s)>
CYP2A6
CYP2B6
CYP2C8
CYP2C9
CYP2C19
CYP2D6
CYP3A4

> <Biosystem>
HUMAN

> <Precursor_ID>


> <Precursor_SMILES>
C[C@]12CC=CC[C@@H]1CC[C@@H]3[C@@H]2CC[C@@]4(C)[C@H]3CC[C@]4(C)O

> <Precursor_InChI>
InChI=1S/C20H32O/c1-18-11-5-4-6-14(18)7-8-15-16(18)9-12-19(2)17(15)10-13-20(19,3)21/h4-5,14-17,21H,6-13H2,1-3H3/t14-,15-,16+,17+,18+,19+,20+/m1/s1

> <Precursor_InChIKey>
FRVHJVATKMIOPQ-PAPWGAKMSA-N

> <Precursor_ALogP>


> <Precursor_Major_Isotope_Mass>
288.2453

$$$$
BTM00008
  CDK     09122622082D

 22 25  0  0  1  0  0  0  0  0999 V2000
   -1.6800    1.1900    0.0000 C   0  0  0  0  0  0  0  0  0  0  0  0
   -1.6800   -0.3100    0.0000 C   0  0  2  0  0  0  0  0  0  0  0  0
   -2.9800    0.4400    0.0000 C   0  0  0  0  0  0  0  0  0  0  0  0
   -4.2800   -0.3100    0.0000 C   0  0  0  0  0  0  0  0  0  0  0  0
   -4.2800   -1.8100    0.0000 C   0  0  0  0  0  0  0  0  0  0  0  0
   -2.9800   -2.5600    0.0000 C   0  0  0  0  0  0  0  0  0  0  0  0
   -1.6800   -1.8100    0.0000 C   0  0  2  0  0  0  0  0  0  0  0  0
   -0.3800   -2.5600    0.0000 C   0  0  0  0  0  0  0  0  0  0  0  0
    0.9200   -1.8100    0.0000 C   0  0  0  0  0  0  0  0  0  0  0  0
    0.9200   -0.3100    0.0000 C   0  0  2  0  0  0  0  0  0  0  0  0
   -0.3800    0.4400    0.0000 C   0  0  2  0  0  0  0  0  0  0  0  0
   -0.3800    1.9400    0.0000 C   0  0  0  0  0  0  0  0  0  0  0  0
    0.9200    2.6900    0.0000 C   0  0  0  0  0  0  0  0  0  0  0  0
    2.2200    1.9400    0.0000 C   0  0  1  0  0  0  0  0  0  0  0  0
    2.3787    3.4316    0.0000 C   0  0  0  0  0  0  0  0  0  0  0  0
    2.2200    0.4400    0.0000 C   0  0  1  0  0  0  0  0  0  0  0  0
    3.6500   -0.0200    0.0000 C   0  0  0  0  0  0  0  0  0  0  0  0
    4.5300    1.1900    0.0000 C   0  0  0  0  0  0  0  0  0  0  0  0
    3.6500    2.4000    0.0000 C   0  0  1  0  0  0  0  0  0  0  0  0
    4.9495    3.1491    0.0000 C   0  0  0  0  0  0  0  0  0  0  0  0
    3.6962    0.9007    0.0000 O   0  0  0  0  0  0  0  0  0  0  0  0
   -2.9790    1.9400    0.0000 O   0  0  0  0  0  0  0  0  0  0  0  0
  2  1  1  1  0  0  0
  2  3  1  0  0  0  0
  3  4  1  0  0  0  0
  4  5  2  0  0  0  0
  5  6  1  0  0  0  0
  7  6  1  1  0  0  0
  2  7  1  0  0  0  0
  7  8  1  0  0  0  0
  8  9  1  0  0  0  0
 10  9  1  6  0  0  0
 10 11  1  0  0  0  0
  2 11  1  0  0  0  0
 11 12  1  1  0  0  0
 12 13  1  0  0  0  0
 13 14  1  0  0  0  0
 14 15  1  1  0  0  0
 14 16  1  0  0  0  0
 10 16  1  0  0  0  0
 16 17  1  1  0  0  0
 17 18  1  0  0  0  0
 19 18  1  6  0  0  0
 14 19  1  0  0  0  0
 19 20  1  0  0  0  0
 19 21  1  1  0  0  0
 22  1  1  0  0  0  0
M  END
> <InChI>
InChI=1S/C20H32O2/c1-18-11-8-17-15(16(18)9-12-19(18,2)22)7-6-14-5-3-4-10-20(14,17)13-21/h3-4,14-17,21-22H,5-13H2,1-2H3/t14-,15+,16+,17+,18+,19+,20-/m1/s1

> <InChIKey>
JFXDQBUSGSGMEG-IPOQXWOTSA-N

> <SMILES>
C([C@]12CC=CC[C@@H]1CC[C@@H]3[C@@H]2CC[C@@]4(C)[C@H]3CC[C@]4(C)O)O

> <Synonyms>


> <PUBCHEM_CID>


> <Molecular_formula>
C20H32O2

> <Major_Isotope_Mass>
304.240230264

> <ALogP>
3.3944

> <Lipinski_Violations>
0

> <Insecticide_Likeness_Violations>
0

> <Post_Em_Herbicide_Likeness_Violations>
0

> <Metabolite_ID>
BTM00008

> <Reaction>
Hydroxylation of methyl carbon adjacent to aliphatic ring

> <Reaction_ID>
BTMR0054

> <Enzyme(s)>
CYP2B6
CYP2C8
CYP2C9
CYP2C19
CYP2D6
CYP3A4

> <Biosystem>
HUMAN

> <Precursor_ID>


> <Precursor_SMILES>
C[C@]12CC=CC[C@@H]1CC[C@@H]3[C@@H]2CC[C@@]4(C)[C@H]3CC[C@]4(C)O

> <Precursor_InChI>
InChI=1S/C20H32O/c1-18-11-5-4-6-14(18)7-8-15-16(18)9-12-19(2)17(15)10-13-20(19,3)21/h4-5,14-17,21H,6-13H2,1-3H3/t14-,15-,16+,17+,18+,19+,20+/m1/s1

> <Precursor_InChIKey>
FRVHJVATKMIOPQ-PAPWGAKMSA-N

> <Precursor_ALogP>


> <Precursor_Major_Isotope_Mass>
288.2453

$$$$
BTM00009
  CDK     09122622082D

 22 25  0  0  1  0  0  0  0  0999 V2000
   -1.6800    1.1900    0.0000 C   0  0  0  0  0  0  0  0  0  0  0  0
   -1.6800   -0.3100    0.0000 C   0  0  2  0  0  0  0  0  0  0  0  0
   -2.9800    0.4400    0.0000 C   0  0  0  0  0  0  0  0  0  0  0  0
   -4.2800   -0.3100    0.0000 C   0  0  0  0  0  0  0  0  0  0  0  0
   -4.2800   -1.8100    0.0000 C   0  0  0  0  0  0  0  0  0  0  0  0
   -2.9800   -2.5600    0.0000 C   0  0  0  0  0  0  0  0  0  0  0  0
   -1.6800   -1.8100    0.0000 C   0  0  2  0  0  0  0  0  0  0  0  0
   -0.3800   -2.5600    0.0000 C   0  0  0  0  0  0  0  0  0  0  0  0
    0.9200   -1.8100    0.0000 C   0  0  0  0  0  0  0  0  0  0  0  0
    0.9200   -0.3100    0.0000 C   0  0  2  0  0  0  0  0  0  0  0  0
   -0.3800    0.4400    0.0000 C   0  0  2  0  0  0  0  0  0  0  0  0
   -0.3800    1.9400    0.0000 C   0  0  0  0  0  0  0  0  0  0  0  0
    0.9200    2.6900    0.0000 C   0  0  0  0  0  0  0  0  0  0  0  0
    2.2200    1.9400    0.0000 C   0  0  1  0  0  0  0  0  0  0  0  0
    2.3787    3.4316    0.0000 C   0  0  0  0  0  0  0  0  0  0  0  0
    2.2200    0.4400    0.0000 C   0  0  1  0  0  0  0  0  0  0  0  0
    3.6500   -0.0200    0.0000 C   0  0  0  0  0  0  0  0  0  0  0  0
    4.5300    1.1900    0.0000 C   0  0  0  0  0  0  0  0  0  0  0  0
    3.6500    2.4000    0.0000 C   0  0  1  0  0  0  0  0  0  0  0  0
    4.9495    3.1491    0.0000 C   0  0  0  0  0  0  0  0  0  0  0  0
    3.6962    0.9007    0.0000 O   0  0  0  0  0  0  0  0  0  0  0  0
    6.2481    2.3983    0.0000 O   0  0  0  0  0  0  0  0  0  0  0  0
  2  1  1  1  0  0  0
  2  3  1  0  0  0  0
  3  4  1  0  0  0  0
  4  5  2  0  0  0  0
  5  6  1  0  0  0  0
  7  6  1  1  0  0  0
  2  7  1  0  0  0  0
  7  8  1  0  0  0  0
  8  9  1  0  0  0  0
 10  9  1  6  0  0  0
 10 11  1  0  0  0  0
  2 11  1  0  0  0  0
 11 12  1  1  0  0  0
 12 13  1  0  0  0  0
 13 14  1  0  0  0  0
 14 15  1  1  0  0  0
 14 16  1  0  0  0  0
 10 16  1  0  0  0  0
 16 17  1  1  0  0  0
 17 18  1  0  0  0  0
 19 18  1  6  0  0  0
 14 19  1  0  0  0  0
 19 20  1  0  0  0  0
 19 21  1  1  0  0  0
 22 20  1  0  0  0  0
M  END
> <InChI>
InChI=1S/C20H32O2/c1-18-10-4-3-5-14(18)6-7-15-16(18)8-11-19(2)17(15)9-12-20(19,22)13-21/h3-4,14-17,21-22H,5-13H2,1-2H3/t14-,15-,16+,17+,18+,19+,20-/m1/s1

> <InChIKey>
NTSDBJTVHMPTFG-LFGUEBOJSA-N

> <SMILES>
C[C@]12CC=CC[C@@H]1CC[C@@H]3[C@@H]2CC[C@@]4(C)[C@H]3CC[C@]4(CO)O

> <Synonyms>


> <PUBCHEM_CID>


> <Molecular_formula>
C20H32O2

> <Major_Isotope_Mass>
304.240230264

> <ALogP>
3.5969000000000015

> <Lipinski_Violations>
1

> <Insecticide_Likeness_Violations>
0

> <Post_Em_Herbicide_Likeness_Violations>
0

> <Metabolite_ID>
BTM00009

> <Reaction>
Hydroxylation of methyl carbon adjacent to aliphatic ring

> <Reaction_ID>
BTMR0054

> <Enzyme(s)>
CYP2B6
CYP2C8
CYP2C9
CYP2C19
CYP2D6
CYP3A4

> <Biosystem>
HUMAN

> <Precursor_ID>


> <Precursor_SMILES>
C[C@]12CC=CC[C@@H]1CC[C@@H]3[C@@H]2CC[C@@]4(C)[C@H]3CC[C@]4(C)O

> <Precursor_InChI>
InChI=1S/C20H32O/c1-18-11-5-4-6-14(18)7-8-15-16(18)9-12-19(2)17(15)10-13-20(19,3)21/h4-5,14-17,21H,6-13H2,1-3H3/t14-,15-,16+,17+,18+,19+,20+/m1/s1

> <Precursor_InChIKey>
FRVHJVATKMIOPQ-PAPWGAKMSA-N

> <Precursor_ALogP>


> <Precursor_Major_Isotope_Mass>
288.2453

$$$$
BTM00010
  CDK     09122622082D

 22 25  0  0  1  0  0  0  0  0999 V2000
   -1.6800    1.1900    0.0000 C   0  0  0  0  0  0  0  0  0  0  0  0
   -1.6800   -0.3100    0.0000 C   0  0  2  0  0  0  0  0  0  0  0  0
   -2.9800    0.4400    0.0000 C   0  0  0  0  0  0  0  0  0  0  0  0
   -4.2800   -0.3100    0.0000 C   0  0  0  0  0  0  0  0  0  0  0  0
   -4.2800   -1.8100    0.0000 C   0  0  0  0  0  0  0  0  0  0  0  0
   -2.9800   -2.5600    0.0000 C   0  0  0  0  0  0  0  0  0  0  0  0
   -1.6800   -1.8100    0.0000 C   0  0  2  0  0  0  0  0  0  0  0  0
   -0.3800   -2.5600    0.0000 C   0  0  0  0  0  0  0  0  0  0  0  0
    0.9200   -1.8100    0.0000 C   0  0  0  0  0  0  0  0  0  0  0  0
    0.9200   -0.3100    0.0000 C   0  0  2  0  0  0  0  0  0  0  0  0
   -0.3800    0.4400    0.0000 C   0  0  2  0  0  0  0  0  0  0  0  0
   -0.3800    1.9400    0.0000 C   0  0  0  0  0  0  0  0  0  0  0  0
    0.9200    2.6900    0.0000 C   0  0  0  0  0  0  0  0  0  0  0  0
    2.2200    1.9400    0.0000 C   0  0  1  0  0  0  0  0  0  0  0  0
    2.3787    3.4316    0.0000 C   0  0  0  0  0  0  0  0  0  0  0  0
    2.2200    0.4400    0.0000 C   0  0  1  0  0  0  0  0  0  0  0  0
    3.6500   -0.0200    0.0000 C   0  0  0  0  0  0  0  0  0  0  0  0
    4.5300    1.1900    0.0000 C   0  0  0  0  0  0  0  0  0  0  0  0
    3.6500    2.4000    0.0000 C   0  0  1  0  0  0  0  0  0  0  0  0
    4.9495    3.1491    0.0000 C   0  0  0  0  0  0  0  0  0  0  0  0
    3.2897    3.8561    0.0000 O   0  0  0  0  0  0  0  0  0  0  0  0
    1.1664    4.3148    0.0000 O   0  0  0  0  0  0  0  0  0  0  0  0
  2  1  1  1  0  0  0
  2  3  1  0  0  0  0
  3  4  1  0  0  0  0
  4  5  2  0  0  0  0
  5  6  1  0  0  0  0
  7  6  1  1  0  0  0
  2  7  1  0  0  0  0
  7  8  1  0  0  0  0
  8  9  1  0  0  0  0
 10  9  1  6  0  0  0
 10 11  1  0  0  0  0
  2 11  1  0  0  0  0
 11 12  1  1  0  0  0
 12 13  1  0  0  0  0
 13 14  1  0  0  0  0
 14 15  1  1  0  0  0
 14 16  1  0  0  0  0
 10 16  1  0  0  0  0
 16 17  1  1  0  0  0
 17 18  1  0  0  0  0
 18 19  1  0  0  0  0
 14 19  1  0  0  0  0
 19 20  1  6  0  0  0
 19 21  1  1  0  0  0
 22 15  1  0  0  0  0
M  END
> <InChI>
InChI=1S/C20H32O2/c1-18-10-4-3-5-14(18)6-7-15-16(18)9-12-20(13-21)17(15)8-11-19(20,2)22/h3-4,14-17,21-22H,5-13H2,1-2H3/t14-,15-,16+,17+,18+,19+,20-/m1/s1

> <InChIKey>
OPLZULPRRWHQTO-LFGUEBOJSA-N

> <SMILES>
C[C@]12CC=CC[C@@H]1CC[C@@H]3[C@@H]2CC[C@@]4(CO)[C@H]3CC[C@]4(C)O

> <Synonyms>


> <PUBCHEM_CID>


> <Molecular_formula>
C20H32O2

> <Major_Isotope_Mass>
304.240230264

> <ALogP>
3.3944

> <Lipinski_Violations>
1

> <Insecticide_Likeness_Violations>
0

> <Post_Em_Herbicide_Likeness_Violations>
0

> <Metabolite_ID>
BTM00010

> <Reaction>
Hydroxylation of methyl carbon adjacent to aliphatic ring

> <Reaction_ID>
BTMR0054

> <Enzyme(s)>
CYP2B6
CYP2C8
CYP2C9
CYP2C19
CYP2D6
CYP3A4

> <Biosystem>
HUMAN

> <Precursor_ID>


> <Precursor_SMILES>
C[C@]12CC=CC[C@@H]1CC[C@@H]3[C@@H]2CC[C@@]4(C)[C@H]3CC[C@]4(C)O

> <Precursor_InChI>
InChI=1S/C20H32O/c1-18-11-5-4-6-14(18)7-8-15-16(18)9-12-19(2)17(15)10-13-20(19,3)21/h4-5,14-17,21H,6-13H2,1-3H3/t14-,15-,16+,17+,18+,19+,20+/m1/s1

> <Precursor_InChIKey>
FRVHJVATKMIOPQ-PAPWGAKMSA-N

> <Precursor_ALogP>


> <Precursor_Major_Isotope_Mass>
288.2453

$$$$
