BTM00001
  CDK     09122622082D

 23 26  0  0  1  0  0  0  0  0999 V2000
    2.2189   -2.5602    0.0000 C   0  0  0  0  0  0  0  0  0  0  0  0
    0.9200   -1.8100    0.0000 C   0  0  2  0  0  0  0  0  0  0  0  0
   -0.3800   -2.5600    0.0000 C   0  0  0  0  0  0  0  0  0  0  0  0
   -1.6800   -1.8100    0.0000 C   0  0  0  0  0  0  0  0  0  0  0  0
   -2.9800   -2.5600    0.0000 C   0  0  0  0  0  0  0  0  0  0  0  0
   -4.2800   -1.8100    0.0000 C   0  0  0  0  0  0  0  0  0  0  0  0
   -5.5789   -2.5602    0.0000 O   0  0  0  0  0  0  0  0  0  0  0  0
   -4.2800   -0.3100    0.0000 C   0  0  0  0  0  0  0  0  0  0  0  0
   -2.9800    0.4400    0.0000 C   0  0  0  0  0  0  0  0  0  0  0  0
   -1.6800   -0.3100    0.0000 C   0  0  1  0  0  0  0  0  0  0  0  0
   -1.6800    1.1900    0.0000 C   0  0  0  0  0  0  0  0  0  0  0  0
   -0.3800    0.4400    0.0000 C   0  0  1  0  0  0  0  0  0  0  0  0
   -0.3800    1.9400    0.0000 C   0  0  0  0  0  0  0  0  0  0  0  0
    0.9200    2.6900    0.0000 C   0  0  0  0  0  0  0  0  0  0  0  0
    2.2200    1.9400    0.0000 C   0  0  1  0  0  0  0  0  0  0  0  0
    2.3787    3.4316    0.0000 C   0  0  0  0  0  0  0  0  0  0  0  0
    2.2200    0.4400    0.0000 C   0  0  1  0  0  0  0  0  0  0  0  0
    3.6500   -0.0200    0.0000 C   0  0  0  0  0  0  0  0  0  0  0  0
    4.5300    1.1900    0.0000 C   0  0  0  0  0  0  0  0  0  0  0  0
    3.6500    2.4000    0.0000 C   0  0  1  0  0  0  0  0  0  0  0  0
    4.9495    3.1491    0.0000 C   0  0  0  0  0  0  0  0  0  0  0  0
    3.6962    0.9007    0.0000 O   0  0  0  0  0  0  0  0  0  0  0  0
    0.9200   -0.3100    0.0000 C   0  0  2  0  0  0  0  0  0  0  0  0
  2  1  1  6  0  0  0
  2  3  1  0  0  0  0
  3  4  1  0  0  0  0
  4  5  2  0  0  0  0
  5  6  1  0  0  0  0
  6  7  1  0  0  0  0
  6  8  1  0  0  0  0
  8  9  1  0  0  0  0
  9 10  1  0  0  0  0
  4 10  1  0  0  0  0
 10 11  1  1  0  0  0
 10 12  1  0  0  0  0
 12 13  1  1  0  0  0
 13 14  1  0  0  0  0
 14 15  1  0  0  0  0
 15 16  1  1  0  0  0
 15 17  1  0  0  0  0
 17 18  1  1  0  0  0
 18 19  1  0  0  0  0
 20 19  1  6  0  0  0
 15 20  1  0  0  0  0
 20 21  1  0  0  0  0
 20 22  1  1  0  0  0
 17 23  1  0  0  0  0
 23  2  1  6  0  0  0
 12 23  1  0  0  0  0
M  END
> <InChI>
InChI=1S/C21H34O2/c1-13-11-14-12-15(22)5-8-19(14,2)16-6-9-20(3)17(18(13)16)7-10-21(20,4)23/h12-13,15-18,22-23H,5-11H2,1-4H3/t13-,15?,16+,17+,18-,19+,20+,21+/m1/s1

> <InChIKey>
OYIBNCGDVSXUNZ-MDAADWIFSA-N

> <SMILES>
C[C@@H]1CC2=CC(O)CC[C@]2(C)[C@H]3CC[C@@]4(C)[C@@H](CC[C@]4(C)O)[C@H]13

> <Synonyms>


> <PUBCHEM_CID>


> <Molecular_formula>
C21H34O2

> <Major_Isotope_Mass>
318.255880328

> <ALogP>
3.829600000000002

> <Lipinski_Violations>
0

> <Insecticide_Likeness_Violations>
0

> <Post_Em_Herbicide_Likeness_Violations>
0

> <Metabolite_ID>
BTM00001

> <Reaction>
Reduction of carbonyl

> <Reaction_ID>
BTMR0368

> <Enzyme(s)>
EC 1.1.1.184

> <Biosystem>
HUMAN

> <Precursor_ID>


> <Precursor_SMILES>
C[C@@H]1CC2=CC(=O)CC[C@]2(C)[C@H]3CC[C@@]4(C)[C@@H](CC[C@]4(C)O)[C@H]13

> <Precursor_InChI>
InChI=1S/C21H32O2/c1-13-11-14-12-15(22)5-8-19(14,2)16-6-9-20(3)17(18(13)16)7-10-21(20,4)23/h12-13,16-18,23H,5-11H2,1-4H3/t13-,16+,17+,18-,19+,20+,21+/m1/s1

> <Precursor_InChIKey>
IVFYLRMMHVYGJH-VLOLGRDOSA-N

> <Precursor_ALogP>


> <Precursor_Major_Isotope_Mass>
316.2402

$$$$
BTM00002
  CDK     09122622082D

 24 27  0  0  1  0  0  0  0  0999 V2000
    2.2189   -2.5602    0.0000 C   0  0  0  0  0  0  0  0  0  0  0  0
    0.9200   -1.8100    0.0000 C   0  0  2  0  0  0  0  0  0  0  0  0
   -0.3800   -2.5600    0.0000 C   0  0  0  0  0  0  0  0  0  0  0  0
   -1.6800   -1.8100    0.0000 C   0  0  0  0  0  0  0  0  0  0  0  0
   -2.9800   -2.5600    0.0000 C   0  0  0  0  0  0  0  0  0  0  0  0
   -4.2800   -1.8100    0.0000 C   0  0  0  0  0  0  0  0  0  0  0  0
   -5.5789   -2.5602    0.0000 O   0  0  0  0  0  0  0  0  0  0  0  0
   -4.2800   -0.3100    0.0000 C   0  0  0  0  0  0  0  0  0  0  0  0
   -2.9800    0.4400    0.0000 C   0  0  0  0  0  0  0  0  0  0  0  0
   -1.6800   -0.3100    0.0000 C   0  0  1  0  0  0  0  0  0  0  0  0
   -1.6800    1.1900    0.0000 C   0  0  0  0  0  0  0  0  0  0  0  0
   -0.3800    0.4400    0.0000 C   0  0  1  0  0  0  0  0  0  0  0  0
   -0.3800    1.9400    0.0000 C   0  0  0  0  0  0  0  0  0  0  0  0
    0.9200    2.6900    0.0000 C   0  0  0  0  0  0  0  0  0  0  0  0
    2.2200    1.9400    0.0000 C   0  0  1  0  0  0  0  0  0  0  0  0
    2.3787    3.4316    0.0000 C   0  0  0  0  0  0  0  0  0  0  0  0
    2.2200    0.4400    0.0000 C   0  0  1  0  0  0  0  0  0  0  0  0
    3.6500   -0.0200    0.0000 C   0  0  0  0  0  0  0  0  0  0  0  0
    4.5300    1.1900    0.0000 C   0  0  0  0  0  0  0  0  0  0  0  0
    3.6500    2.4000    0.0000 C   0  0  1  0  0  0  0  0  0  0  0  0
    4.9495    3.1491    0.0000 C   0  0  0  0  0  0  0  0  0  0  0  0
    3.6962    0.9007    0.0000 O   0  0  0  0  0  0  0  0  0  0  0  0
    0.9200   -0.3100    0.0000 C   0  0  2  0  0  0  0  0  0  0  0  0
   -1.6789    2.6902    0.0000 O   0  0  0  0  0  0  0  0  0  0  0  0
  2  1  1  6  0  0  0
  2  3  1  0  0  0  0
  3  4  1  0  0  0  0
  4  5  2  0  0  0  0
  5  6  1  0  0  0  0
  6  7  2  0  0  0  0
  6  8  1  0  0  0  0
  8  9  1  0  0  0  0
  9 10  1  0  0  0  0
  4 10  1  0  0  0  0
 10 11  1  1  0  0  0
 10 12  1  0  0  0  0
 12 13  1  1  0  0  0
 13 14  1  0  0  0  0
 14 15  1  0  0  0  0
 15 16  1  1  0  0  0
 15 17  1  0  0  0  0
 17 18  1  1  0  0  0
 18 19  1  0  0  0  0
 20 19  1  6  0  0  0
 15 20  1  0  0  0  0
 20 21  1  0  0  0  0
 20 22  1  1  0  0  0
 17 23  1  0  0  0  0
 23  2  1  6  0  0  0
 12 23  1  0  0  0  0
 24 13  1  0  0  0  0
M  END
> <InChI>
InChI=1S/C21H32O3/c1-12-9-13-10-14(22)5-7-19(13,2)18-16(23)11-20(3)15(17(12)18)6-8-21(20,4)24/h10,12,15-18,23-24H,5-9,11H2,1-4H3/t12-,15+,16?,17+,18+,19+,20+,21+/m1/s1

> <InChIKey>
SUKMOMANEUHOTO-ARRCQEGBSA-N

> <SMILES>
C[C@@H]1CC2=CC(=O)CC[C@]2(C)[C@H]3C(C[C@@]4(C)[C@@H](CC[C@]4(C)O)[C@H]13)O

> <Synonyms>


> <PUBCHEM_CID>


> <Molecular_formula>
C21H32O3

> <Major_Isotope_Mass>
332.23514488399996

> <ALogP>
2.6206999999999976

> <Lipinski_Violations>
0

> <Insecticide_Likeness_Violations>
0

> <Post_Em_Herbicide_Likeness_Violations>
0

> <Metabolite_ID>
BTM00002

> <Reaction>
11-beta-Hydroxylation of sterol

> <Reaction_ID>
BTMR0406

> <Enzyme(s)>
EC 1.14.15.4

> <Biosystem>
HUMAN

> <Precursor_ID>


> <Precursor_SMILES>
C[C@@H]1CC2=CC(=O)CC[C@]2(C)[C@H]3CC[C@@]4(C)[C@@H](CC[C@]4(C)O)[C@H]13

> <Precursor_InChI>
InChI=1S/C21H32O2/c1-13-11-14-12-15(22)5-8-19(14,2)16-6-9-20(3)17(18(13)16)7-10-21(20,4)23/h12-13,16-18,23H,5-11H2,1-4H3/t13-,16+,17+,18-,19+,20+,21+/m1/s1

> <Precursor_InChIKey>
IVFYLRMMHVYGJH-VLOLGRDOSA-N

> <Precursor_ALogP>


> <Precursor_Major_Isotope_Mass>
316.2402

$$$$
BTM00003
  CDK     09122622082D

 35 39  0  0  1  0  0  0  0  0999 V2000
    2.4134   -2.9991    0.0000 C   0  0  0  0  0  0  0  0  0  0  0  0
    1.1144   -2.2489    0.0000 C   0  0  2  0  0  0  0  0  0  0  0  0
   -0.1856   -2.9989    0.0000 C   0  0  0  0  0  0  0  0  0  0  0  0
   -1.4856   -2.2489    0.0000 C   0  0  0  0  0  0  0  0  0  0  0  0
   -2.7856   -2.9989    0.0000 C   0  0  0  0  0  0  0  0  0  0  0  0
   -4.0856   -2.2489    0.0000 C   0  0  0  0  0  0  0  0  0  0  0  0
   -5.3845   -2.9991    0.0000 O   0  0  0  0  0  0  0  0  0  0  0  0
   -4.0856   -0.7489    0.0000 C   0  0  0  0  0  0  0  0  0  0  0  0
   -2.7856    0.0011    0.0000 C   0  0  0  0  0  0  0  0  0  0  0  0
   -1.4856   -0.7489    0.0000 C   0  0  1  0  0  0  0  0  0  0  0  0
   -1.4856    0.7511    0.0000 C   0  0  0  0  0  0  0  0  0  0  0  0
   -0.1856    0.0011    0.0000 C   0  0  1  0  0  0  0  0  0  0  0  0
   -0.1856    1.5011    0.0000 C   0  0  0  0  0  0  0  0  0  0  0  0
    1.1144    2.2511    0.0000 C   0  0  0  0  0  0  0  0  0  0  0  0
    2.4144    1.5011    0.0000 C   0  0  1  0  0  0  0  0  0  0  0  0
    2.5732    2.9927    0.0000 C   0  0  0  0  0  0  0  0  0  0  0  0
    2.4144    0.0011    0.0000 C   0  0  1  0  0  0  0  0  0  0  0  0
    3.8444   -0.4589    0.0000 C   0  0  0  0  0  0  0  0  0  0  0  0
    4.7244    0.7511    0.0000 C   0  0  0  0  0  0  0  0  0  0  0  0
    3.8444    1.9611    0.0000 C   0  0  1  0  0  0  0  0  0  0  0  0
    5.1440    2.7103    0.0000 C   0  0  0  0  0  0  0  0  0  0  0  0
    3.0424    3.7714    0.0000 O   0  0  0  0  0  0  0  0  0  0  0  0
    1.1144   -0.7489    0.0000 C   0  0  2  0  0  0  0  0  0  0  0  0
    1.8365    6.5132    0.0000 O   0  0  0  0  0  0  0  0  0  0  0  0
    3.3273    6.3477    0.0000 C   0  0  0  0  0  0  0  0  0  0  0  0
    4.2305    7.5742    0.0000 C   0  0  0  0  0  0  0  0  0  0  0  0
    3.6322    8.9497    0.0000 O   0  0  0  0  0  0  0  0  0  0  0  0
    5.7264    7.4008    0.0000 C   0  0  0  0  0  0  0  0  0  0  0  0
    6.6177    8.6072    0.0000 O   0  0  0  0  0  0  0  0  0  0  0  0
    6.3253    6.0364    0.0000 C   0  0  0  0  0  0  0  0  0  0  0  0
    5.4363    4.8272    0.0000 O   0  0  0  0  0  0  0  0  0  0  0  0
    3.9262    4.9834    0.0000 C   0  0  0  0  0  0  0  0  0  0  0  0
    7.8162    5.8716    0.0000 C   0  0  0  0  0  0  0  0  0  0  0  0
    8.7044    7.0803    0.0000 O   0  0  0  0  0  0  0  0  0  0  0  0
    8.4189    4.4980    0.0000 O   0  0  0  0  0  0  0  0  0  0  0  0
  2  1  1  6  0  0  0
  2  3  1  0  0  0  0
  3  4  1  0  0  0  0
  4  5  2  0  0  0  0
  5  6  1  0  0  0  0
  6  7  2  0  0  0  0
  6  8  1  0  0  0  0
  8  9  1  0  0  0  0
  9 10  1  0  0  0  0
  4 10  1  0  0  0  0
 10 11  1  1  0  0  0
 10 12  1  0  0  0  0
 12 13  1  1  0  0  0
 13 14  1  0  0  0  0
 14 15  1  0  0  0  0
 15 16  1  1  0  0  0
 15 17  1  0  0  0  0
 17 18  1  1  0  0  0
 18 19  1  0  0  0  0
 19 20  1  0  0  0  0
 15 20  1  0  0  0  0
 20 21  1  6  0  0  0
 20 22  1  1  0  0  0
 17 23  1  0  0  0  0
 23  2  1  6  0  0  0
 12 23  1  0  0  0  0
 24 25  1  0  0  0  0
 25 26  1  0  0  0  0
 26 27  1  0  0  0  0
 26 28  1  0  0  0  0
 28 29  1  0  0  0  0
 28 30  1  0  0  0  0
 30 31  1  0  0  0  0
 31 32  1  0  0  0  0
 25 32  1  0  0  0  0
 32 22  1  0  0  0  0
 30 33  1  0  0  0  0
 33 34  1  0  0  0  0
 33 35  2  0  0  0  0
M  END
> <InChI>
InChI=1S/C27H40O8/c1-13-11-14-12-15(28)5-8-25(14,2)16-6-9-26(3)17(18(13)16)7-10-27(26,4)35-24-21(31)19(29)20(30)22(34-24)23(32)33/h12-13,16-22,24,29-31H,5-11H2,1-4H3,(H,32,33)/t13-,16+,17+,18-,19?,20?,21?,22?,24?,25+,26+,27+/m1/s1

> <InChIKey>
UVAWYGLTSQVNFU-ABGHNIIISA-N

> <SMILES>
C[C@@H]1CC2=CC(=O)CC[C@]2(C)[C@H]3CC[C@@]4(C)[C@@H](CC[C@]4(C)OC5OC(C(C(C5O)O)O)C(O)=O)[C@H]13

> <Synonyms>


> <PUBCHEM_CID>


> <Molecular_formula>
C27H40O8

> <Major_Isotope_Mass>
492.27231824

> <ALogP>
2.2520999999999973

> <Lipinski_Violations>
0

> <Insecticide_Likeness_Violations>
1

> <Post_Em_Herbicide_Likeness_Violations>
1

> <Metabolite_ID>
BTM00003

> <Reaction>
17-OH-Glucuronidation of sterol

> <Reaction_ID>
BTMR0163

> <Enzyme(s)>
EC 2.4.1.17

> <Biosystem>
HUMAN

> <Precursor_ID>


> <Precursor_SMILES>
C[C@@H]1CC2=CC(=O)CC[C@]2(C)[C@H]3CC[C@@]4(C)[C@@H](CC[C@]4(C)O)[C@H]13

> <Precursor_InChI>
InChI=1S/C21H32O2/c1-13-11-14-12-15(22)5-8-19(14,2)16-6-9-20(3)17(18(13)16)7-10-21(20,4)23/h12-13,16-18,23H,5-11H2,1-4H3/t13-,16+,17+,18-,19+,20+,21+/m1/s1

> <Precursor_InChIKey>
IVFYLRMMHVYGJH-VLOLGRDOSA-N

> <Precursor_ALogP>


> <Precursor_Major_Isotope_Mass>
316.2402

$$$$
BTM00004
  CDK     09122622082D

 24 27  0  0  1  0  0  0  0  0999 V2000
    2.2189   -2.5602    0.0000 C   0  0  0  0  0  0  0  0  0  0  0  0
    0.9200   -1.8100    0.0000 C   0  0  2  0  0  0  0  0  0  0  0  0
   -0.3800   -2.5600    0.0000 C   0  0  0  0  0  0  0  0  0  0  0  0
   -1.6800   -1.8100    0.0000 C   0  0  0  0  0  0  0  0  0  0  0  0
   -2.9800   -2.5600    0.0000 C   0  0  0  0  0  0  0  0  0  0  0  0
   -4.2800   -1.8100    0.0000 C   0  0  0  0  0  0  0  0  0  0  0  0
   -5.5789   -2.5602    0.0000 O   0  0  0  0  0  0  0  0  0  0  0  0
   -4.2800   -0.3100    0.0000 C   0  0  0  0  0  0  0  0  0  0  0  0
   -2.9800    0.4400    0.0000 C   0  0  0  0  0  0  0  0  0  0  0  0
   -1.6800   -0.3100    0.0000 C   0  0  1  0  0  0  0  0  0  0  0  0
   -1.6800    1.1900    0.0000 C   0  0  0  0  0  0  0  0  0  0  0  0
   -0.3800    0.4400    0.0000 C   0  0  1  0  0  0  0  0  0  0  0  0
   -0.3800    1.9400    0.0000 C   0  0  0  0  0  0  0  0  0  0  0  0
    0.9200    2.6900    0.0000 C   0  0  0  0  0  0  0  0  0  0  0  0
    2.2200    1.9400    0.0000 C   0  0  1  0  0  0  0  0  0  0  0  0
    2.3787    3.4316    0.0000 C   0  0  0  0  0  0  0  0  0  0  0  0
    2.2200    0.4400    0.0000 C   0  0  1  0  0  0  0  0  0  0  0  0
    3.6500   -0.0200    0.0000 C   0  0  0  0  0  0  0  0  0  0  0  0
    4.5300    1.1900    0.0000 C   0  0  0  0  0  0  0  0  0  0  0  0
    3.6500    2.4000    0.0000 C   0  0  1  0  0  0  0  0  0  0  0  0
    4.9495    3.1491    0.0000 C   0  0  0  0  0  0  0  0  0  0  0  0
    3.6962    0.9007    0.0000 O   0  0  0  0  0  0  0  0  0  0  0  0
    0.9200   -0.3100    0.0000 C   0  0  2  0  0  0  0  0  0  0  0  0
    6.0300    1.1900    0.0000 O   0  0  0  0  0  0  0  0  0  0  0  0
  2  1  1  6  0  0  0
  2  3  1  0  0  0  0
  3  4  1  0  0  0  0
  4  5  2  0  0  0  0
  5  6  1  0  0  0  0
  6  7  2  0  0  0  0
  6  8  1  0  0  0  0
  8  9  1  0  0  0  0
  9 10  1  0  0  0  0
  4 10  1  0  0  0  0
 10 11  1  1  0  0  0
 10 12  1  0  0  0  0
 12 13  1  1  0  0  0
 13 14  1  0  0  0  0
 14 15  1  0  0  0  0
 15 16  1  1  0  0  0
 15 17  1  0  0  0  0
 17 18  1  1  0  0  0
 18 19  1  0  0  0  0
 19 20  1  0  0  0  0
 15 20  1  0  0  0  0
 20 21  1  0  0  0  0
 20 22  1  1  0  0  0
 17 23  1  0  0  0  0
 23  2  1  6  0  0  0
 12 23  1  0  0  0  0
 24 19  1  0  0  0  0
M  END
> <InChI>
InChI=1S/C21H32O3/c1-12-9-13-10-14(22)5-7-19(13,2)15-6-8-20(3)16(18(12)15)11-17(23)21(20,4)24/h10,12,15-18,23-24H,5-9,11H2,1-4H3/t12-,15+,16+,17?,18-,19+,20+,21+/m1/s1

> <InChIKey>
XPKOUZAJRDEHHB-BRAJAQTASA-N

> <SMILES>
C[C@@H]1CC2=CC(=O)CC[C@]2(C)[C@H]3CC[C@@]4(C)[C@@H](CC([C@]4(C)O)O)[C@H]13

> <Synonyms>


> <PUBCHEM_CID>


> <Molecular_formula>
C21H32O3

> <Major_Isotope_Mass>
332.23514488399996

> <ALogP>
2.823199999999998

> <Lipinski_Violations>
0

> <Insecticide_Likeness_Violations>
0

> <Post_Em_Herbicide_Likeness_Violations>
0

> <Metabolite_ID>
BTM00004

> <Reaction>
16-Hydroxylation of sterol

> <Reaction_ID>
BTMR0407

> <Enzyme(s)>
CYP1A2
CYP2A6
CYP2B6
CYP2C8
CYP2C9
CYP2C19
CYP2D6
CYP2E1
CYP3A4

> <Biosystem>
HUMAN

> <Precursor_ID>


> <Precursor_SMILES>
C[C@@H]1CC2=CC(=O)CC[C@]2(C)[C@H]3CC[C@@]4(C)[C@@H](CC[C@]4(C)O)[C@H]13

> <Precursor_InChI>
InChI=1S/C21H32O2/c1-13-11-14-12-15(22)5-8-19(14,2)16-6-9-20(3)17(18(13)16)7-10-21(20,4)23/h12-13,16-18,23H,5-11H2,1-4H3/t13-,16+,17+,18-,19+,20+,21+/m1/s1

> <Precursor_InChIKey>
IVFYLRMMHVYGJH-VLOLGRDOSA-N

> <Precursor_ALogP>


> <Precursor_Major_Isotope_Mass>
316.2402

$$$$
BTM00005
  CDK     09122622082D

 24 27  0  0  1  0  0  0  0  0999 V2000
    2.2189   -2.5602    0.0000 C   0  0  0  0  0  0  0  0  0  0  0  0
    0.9200   -1.8100    0.0000 C   0  0  2  0  0  0  0  0  0  0  0  0
   -0.3800   -2.5600    0.0000 C   0  0  0  0  0  0  0  0  0  0  0  0
   -1.6800   -1.8100    0.0000 C   0  0  0  0  0  0  0  0  0  0  0  0
   -2.9800   -2.5600    0.0000 C   0  0  0  0  0  0  0  0  0  0  0  0
   -4.2800   -1.8100    0.0000 C   0  0  0  0  0  0  0  0  0  0  0  0
   -5.5789   -2.5602    0.0000 O   0  0  0  0  0  0  0  0  0  0  0  0
   -4.2800   -0.3100    0.0000 C   0  0  0  0  0  0  0  0  0  0  0  0
   -2.9800    0.4400    0.0000 C   0  0  0  0  0  0  0  0  0  0  0  0
   -1.6800   -0.3100    0.0000 C   0  0  1  0  0  0  0  0  0  0  0  0
   -1.6800    1.1900    0.0000 C   0  0  0  0  0  0  0  0  0  0  0  0
   -0.3800    0.4400    0.0000 C   0  0  1  0  0  0  0  0  0  0  0  0
   -0.3800    1.9400    0.0000 C   0  0  0  0  0  0  0  0  0  0  0  0
    0.9200    2.6900    0.0000 C   0  0  0  0  0  0  0  0  0  0  0  0
    2.2200    1.9400    0.0000 C   0  0  1  0  0  0  0  0  0  0  0  0
    2.3787    3.4316    0.0000 C   0  0  0  0  0  0  0  0  0  0  0  0
    2.2200    0.4400    0.0000 C   0  0  1  0  0  0  0  0  0  0  0  0
    3.6500   -0.0200    0.0000 C   0  0  0  0  0  0  0  0  0  0  0  0
    4.5300    1.1900    0.0000 C   0  0  0  0  0  0  0  0  0  0  0  0
    3.6500    2.4000    0.0000 C   0  0  1  0  0  0  0  0  0  0  0  0
    4.9495    3.1491    0.0000 C   0  0  0  0  0  0  0  0  0  0  0  0
    3.6962    0.9007    0.0000 O   0  0  0  0  0  0  0  0  0  0  0  0
    0.9200   -0.3100    0.0000 C   0  0  2  0  0  0  0  0  0  0  0  0
   -5.5789    0.4402    0.0000 O   0  0  0  0  0  0  0  0  0  0  0  0
  2  1  1  6  0  0  0
  2  3  1  0  0  0  0
  3  4  1  0  0  0  0
  4  5  2  0  0  0  0
  5  6  1  0  0  0  0
  6  7  2  0  0  0  0
  6  8  1  0  0  0  0
  8  9  1  0  0  0  0
  9 10  1  0  0  0  0
  4 10  1  0  0  0  0
 10 11  1  1  0  0  0
 10 12  1  0  0  0  0
 12 13  1  1  0  0  0
 13 14  1  0  0  0  0
 14 15  1  0  0  0  0
 15 16  1  1  0  0  0
 15 17  1  0  0  0  0
 17 18  1  1  0  0  0
 18 19  1  0  0  0  0
 20 19  1  6  0  0  0
 15 20  1  0  0  0  0
 20 21  1  0  0  0  0
 20 22  1  1  0  0  0
 17 23  1  0  0  0  0
 23  2  1  6  0  0  0
 12 23  1  0  0  0  0
 24  8  1  0  0  0  0
M  END
> <InChI>
InChI=1S/C21H32O3/c1-12-9-13-10-16(22)17(23)11-19(13,2)14-5-7-20(3)15(18(12)14)6-8-21(20,4)24/h10,12,14-15,17-18,23-24H,5-9,11H2,1-4H3/t12-,14+,15+,17?,18-,19+,20+,21+/m1/s1

> <InChIKey>
POXMYKVMXDXWTL-WASRKBKOSA-N

> <SMILES>
C[C@@H]1CC2=CC(=O)C(C[C@]2(C)[C@H]3CC[C@@]4(C)[C@@H](CC[C@]4(C)O)[C@H]13)O

> <Synonyms>


> <PUBCHEM_CID>


> <Molecular_formula>
C21H32O3

> <Major_Isotope_Mass>
332.23514488399996

> <ALogP>
3.1095999999999986

> <Lipinski_Violations>
0

> <Insecticide_Likeness_Violations>
0

> <Post_Em_Herbicide_Likeness_Violations>
0

> <Metabolite_ID>
BTM00005

> <Reaction>
2-Hydroxylation of sterol

> <Reaction_ID>
BTMR0398

> <Enzyme(s)>
CYP1A2
CYP2C19
CYP3A4

> <Biosystem>
HUMAN

> <Precursor_ID>


> <Precursor_SMILES>
C[C@@H]1CC2=CC(=O)CC[C@]2(C)[C@H]3CC[C@@]4(C)[C@@H](CC[C@]4(C)O)[C@H]13

> <Precursor_InChI>
InChI=1S/C21H32O2/c1-13-11-14-12-15(22)5-8-19(14,2)16-6-9-20(3)17(18(13)16)7-10-21(20,4)23/h12-13,16-18,23H,5-11H2,1-4H3/t13-,16+,17+,18-,19+,20+,21+/m1/s1

> <Precursor_InChIKey>
IVFYLRMMHVYGJH-VLOLGRDOSA-N

> <Precursor_ALogP>


> <Precursor_Major_Isotope_Mass>
316.2402

$$$$
BTM00006
  CDK     09122622082D

 24 27  0  0  1  0  0  0  0  0999 V2000
    2.2189   -2.5602    0.0000 C   0  0  0  0  0  0  0  0  0  0  0  0
    0.9200   -1.8100    0.0000 C   0  0  2  0  0  0  0  0  0  0  0  0
   -0.3800   -2.5600    0.0000 C   0  0  0  0  0  0  0  0  0  0  0  0
   -1.6800   -1.8100    0.0000 C   0  0  0  0  0  0  0  0  0  0  0  0
   -2.9800   -2.5600    0.0000 C   0  0  0  0  0  0  0  0  0  0  0  0
   -4.2800   -1.8100    0.0000 C   0  0  0  0  0  0  0  0  0  0  0  0
   -5.5789   -2.5602    0.0000 O   0  0  0  0  0  0  0  0  0  0  0  0
   -4.2800   -0.3100    0.0000 C   0  0  0  0  0  0  0  0  0  0  0  0
   -2.9800    0.4400    0.0000 C   0  0  0  0  0  0  0  0  0  0  0  0
   -1.6800   -0.3100    0.0000 C   0  0  1  0  0  0  0  0  0  0  0  0
   -1.6800    1.1900    0.0000 C   0  0  0  0  0  0  0  0  0  0  0  0
   -0.3800    0.4400    0.0000 C   0  0  1  0  0  0  0  0  0  0  0  0
   -0.3800    1.9400    0.0000 C   0  0  0  0  0  0  0  0  0  0  0  0
    0.9200    2.6900    0.0000 C   0  0  0  0  0  0  0  0  0  0  0  0
    2.2200    1.9400    0.0000 C   0  0  1  0  0  0  0  0  0  0  0  0
    2.3787    3.4316    0.0000 C   0  0  0  0  0  0  0  0  0  0  0  0
    2.2200    0.4400    0.0000 C   0  0  1  0  0  0  0  0  0  0  0  0
    3.6500   -0.0200    0.0000 C   0  0  0  0  0  0  0  0  0  0  0  0
    4.5300    1.1900    0.0000 C   0  0  0  0  0  0  0  0  0  0  0  0
    3.6500    2.4000    0.0000 C   0  0  1  0  0  0  0  0  0  0  0  0
    4.9495    3.1491    0.0000 C   0  0  0  0  0  0  0  0  0  0  0  0
    3.6962    0.9007    0.0000 O   0  0  0  0  0  0  0  0  0  0  0  0
    0.9200   -0.3100    0.0000 C   0  0  2  0  0  0  0  0  0  0  0  0
   -2.9800   -4.0600    0.0000 O   0  0  0  0  0  0  0  0  0  0  0  0
  2  1  1  6  0  0  0
  2  3  1  0  0  0  0
  3  4  1  0  0  0  0
  4  5  2  0  0  0  0
  5  6  1  0  0  0  0
  6  7  2  0  0  0  0
  6  8  1  0  0  0  0
  8  9  1  0  0  0  0
  9 10  1  0  0  0  0
  4 10  1  0  0  0  0
 10 11  1  1  0  0  0
 10 12  1  0  0  0  0
 12 13  1  1  0  0  0
 13 14  1  0  0  0  0
 14 15  1  0  0  0  0
 15 16  1  1  0  0  0
 15 17  1  0  0  0  0
 17 18  1  1  0  0  0
 18 19  1  0  0  0  0
 20 19  1  6  0  0  0
 15 20  1  0  0  0  0
 20 21  1  0  0  0  0
 20 22  1  1  0  0  0
 17 23  1  0  0  0  0
 23  2  1  6  0  0  0
 12 23  1  0  0  0  0
 24  5  1  0  0  0  0
M  END
> <InChI>
InChI=1S/C21H32O3/c1-12-11-15-18(23)16(22)7-8-19(15,2)13-5-9-20(3)14(17(12)13)6-10-21(20,4)24/h12-14,17,23-24H,5-11H2,1-4H3/t12-,13+,14+,17-,19-,20+,21+/m1/s1

> <InChIKey>
BEYCNRKUTZAKLP-TWMZQWTQSA-N

> <SMILES>
C[C@@H]1CC2=C(C(=O)CC[C@]2(C)[C@H]3CC[C@@]4(C)[C@@H](CC[C@]4(C)O)[C@H]13)O

> <Synonyms>


> <PUBCHEM_CID>


> <Molecular_formula>
C21H32O3

> <Major_Isotope_Mass>
332.23514488399996

> <ALogP>
3.2269999999999985

> <Lipinski_Violations>
0

> <Insecticide_Likeness_Violations>
0

> <Post_Em_Herbicide_Likeness_Violations>
0

> <Metabolite_ID>
BTM00006

> <Reaction>
4-Hydroxylation of sterol

> <Reaction_ID>
BTMR0400

> <Enzyme(s)>
CYP1A2
CYP3A4

> <Biosystem>
HUMAN

> <Precursor_ID>


> <Precursor_SMILES>
C[C@@H]1CC2=CC(=O)CC[C@]2(C)[C@H]3CC[C@@]4(C)[C@@H](CC[C@]4(C)O)[C@H]13

> <Precursor_InChI>
InChI=1S/C21H32O2/c1-13-11-14-12-15(22)5-8-19(14,2)16-6-9-20(3)17(18(13)16)7-10-21(20,4)23/h12-13,16-18,23H,5-11H2,1-4H3/t13-,16+,17+,18-,19+,20+,21+/m1/s1

> <Precursor_InChIKey>
IVFYLRMMHVYGJH-VLOLGRDOSA-N

> <Precursor_ALogP>


> <Precursor_Major_Isotope_Mass>
316.2402

$$$$
BTM00007
  CDK     09122622082D

 24 27  0  0  1  0  0  0  0  0999 V2000
    2.2189   -2.5602    0.0000 C   0  0  0  0  0  0  0  0  0  0  0  0
    0.9200   -1.8100    0.0000 C   0  0  2  0  0  0  0  0  0  0  0  0
   -0.3800   -2.5600    0.0000 C   0  0  0  0  0  0  0  0  0  0  0  0
   -1.6800   -1.8100    0.0000 C   0  0  0  0  0  0  0  0  0  0  0  0
   -2.9800   -2.5600    0.0000 C   0  0  0  0  0  0  0  0  0  0  0  0
   -4.2800   -1.8100    0.0000 C   0  0  0  0  0  0  0  0  0  0  0  0
   -5.5789   -2.5602    0.0000 O   0  0  0  0  0  0  0  0  0  0  0  0
   -4.2800   -0.3100    0.0000 C   0  0  0  0  0  0  0  0  0  0  0  0
   -2.9800    0.4400    0.0000 C   0  0  0  0  0  0  0  0  0  0  0  0
   -1.6800   -0.3100    0.0000 C   0  0  1  0  0  0  0  0  0  0  0  0
   -1.6800    1.1900    0.0000 C   0  0  0  0  0  0  0  0  0  0  0  0
   -0.3800    0.4400    0.0000 C   0  0  1  0  0  0  0  0  0  0  0  0
   -0.3800    1.9400    0.0000 C   0  0  0  0  0  0  0  0  0  0  0  0
    0.9200    2.6900    0.0000 C   0  0  0  0  0  0  0  0  0  0  0  0
    2.2200    1.9400    0.0000 C   0  0  1  0  0  0  0  0  0  0  0  0
    2.3787    3.4316    0.0000 C   0  0  0  0  0  0  0  0  0  0  0  0
    2.2200    0.4400    0.0000 C   0  0  1  0  0  0  0  0  0  0  0  0
    3.6500   -0.0200    0.0000 C   0  0  0  0  0  0  0  0  0  0  0  0
    4.5300    1.1900    0.0000 C   0  0  0  0  0  0  0  0  0  0  0  0
    3.6500    2.4000    0.0000 C   0  0  1  0  0  0  0  0  0  0  0  0
    4.9495    3.1491    0.0000 C   0  0  0  0  0  0  0  0  0  0  0  0
    3.6962    0.9007    0.0000 O   0  0  0  0  0  0  0  0  0  0  0  0
    0.9200   -0.3100    0.0000 C   0  0  2  0  0  0  0  0  0  0  0  0
   -0.3800   -4.0600    0.0000 O   0  0  0  0  0  0  0  0  0  0  0  0
  2  1  1  6  0  0  0
  2  3  1  0  0  0  0
  3  4  1  0  0  0  0
  4  5  2  0  0  0  0
  5  6  1  0  0  0  0
  6  7  2  0  0  0  0
  6  8  1  0  0  0  0
  8  9  1  0  0  0  0
  9 10  1  0  0  0  0
  4 10  1  0  0  0  0
 10 11  1  1  0  0  0
 10 12  1  0  0  0  0
 12 13  1  1  0  0  0
 13 14  1  0  0  0  0
 14 15  1  0  0  0  0
 15 16  1  1  0  0  0
 15 17  1  0  0  0  0
 17 18  1  1  0  0  0
 18 19  1  0  0  0  0
 20 19  1  6  0  0  0
 15 20  1  0  0  0  0
 20 21  1  0  0  0  0
 20 22  1  1  0  0  0
 17 23  1  0  0  0  0
 23  2  1  6  0  0  0
 12 23  1  0  0  0  0
 24  3  1  0  0  0  0
M  END
> <InChI>
InChI=1S/C21H32O3/c1-12-17-14(6-9-20(3)15(17)7-10-21(20,4)24)19(2)8-5-13(22)11-16(19)18(12)23/h11-12,14-15,17-18,23-24H,5-10H2,1-4H3/t12-,14-,15-,17+,18?,19+,20-,21-/m0/s1

> <InChIKey>
KEPXPAYNGUIIHP-ZUHBALFDSA-N

> <SMILES>
C[C@@H]1C(C2=CC(=O)CC[C@]2(C)[C@H]3CC[C@@]4(C)[C@@H](CC[C@]4(C)O)[C@H]13)O

> <Synonyms>


> <PUBCHEM_CID>


> <Molecular_formula>
C21H32O3

> <Major_Isotope_Mass>
332.23514488399996

> <ALogP>
2.7556999999999974

> <Lipinski_Violations>
0

> <Insecticide_Likeness_Violations>
0

> <Post_Em_Herbicide_Likeness_Violations>
0

> <Metabolite_ID>
BTM00007

> <Reaction>
6-Hydroxylation of sterol

> <Reaction_ID>
BTMR0402

> <Enzyme(s)>
CYP2A6
CYP2B6
CYP2C8
CYP2C9
CYP2C19
CYP2D6
CYP3A4

> <Biosystem>
HUMAN

> <Precursor_ID>


> <Precursor_SMILES>
C[C@@H]1CC2=CC(=O)CC[C@]2(C)[C@H]3CC[C@@]4(C)[C@@H](CC[C@]4(C)O)[C@H]13

> <Precursor_InChI>
InChI=1S/C21H32O2/c1-13-11-14-12-15(22)5-8-19(14,2)16-6-9-20(3)17(18(13)16)7-10-21(20,4)23/h12-13,16-18,23H,5-11H2,1-4H3/t13-,16+,17+,18-,19+,20+,21+/m1/s1

> <Precursor_InChIKey>
IVFYLRMMHVYGJH-VLOLGRDOSA-N

> <Precursor_ALogP>


> <Precursor_Major_Isotope_Mass>
316.2402

$$$$
BTM00008
  CDK     09122622082D

 24 27  0  0  1  0  0  0  0  0999 V2000
    1.4327   -3.2196    0.0000 C   0  0  0  0  0  0  0  0  0  0  0  0
    0.9200   -1.8100    0.0000 C   0  0  0  0  0  0  0  0  0  0  0  0
   -0.3800   -2.5600    0.0000 C   0  0  0  0  0  0  0  0  0  0  0  0
   -1.6800   -1.8100    0.0000 C   0  0  0  0  0  0  0  0  0  0  0  0
   -2.9800   -2.5600    0.0000 C   0  0  0  0  0  0  0  0  0  0  0  0
   -4.2800   -1.8100    0.0000 C   0  0  0  0  0  0  0  0  0  0  0  0
   -5.5789   -2.5602    0.0000 O   0  0  0  0  0  0  0  0  0  0  0  0
   -4.2800   -0.3100    0.0000 C   0  0  0  0  0  0  0  0  0  0  0  0
   -2.9800    0.4400    0.0000 C   0  0  0  0  0  0  0  0  0  0  0  0
   -1.6800   -0.3100    0.0000 C   0  0  1  0  0  0  0  0  0  0  0  0
   -1.6800    1.1900    0.0000 C   0  0  0  0  0  0  0  0  0  0  0  0
   -0.3800    0.4400    0.0000 C   0  0  1  0  0  0  0  0  0  0  0  0
   -0.3800    1.9400    0.0000 C   0  0  0  0  0  0  0  0  0  0  0  0
    0.9200    2.6900    0.0000 C   0  0  0  0  0  0  0  0  0  0  0  0
    2.2200    1.9400    0.0000 C   0  0  1  0  0  0  0  0  0  0  0  0
    2.3787    3.4316    0.0000 C   0  0  0  0  0  0  0  0  0  0  0  0
    2.2200    0.4400    0.0000 C   0  0  1  0  0  0  0  0  0  0  0  0
    3.6500   -0.0200    0.0000 C   0  0  0  0  0  0  0  0  0  0  0  0
    4.5300    1.1900    0.0000 C   0  0  0  0  0  0  0  0  0  0  0  0
    3.6500    2.4000    0.0000 C   0  0  1  0  0  0  0  0  0  0  0  0
    4.9495    3.1491    0.0000 C   0  0  0  0  0  0  0  0  0  0  0  0
    3.6962    0.9007    0.0000 O   0  0  0  0  0  0  0  0  0  0  0  0
    0.9200   -0.3100    0.0000 C   0  0  2  0  0  0  0  0  0  0  0  0
    2.3972   -1.5497    0.0000 O   0  0  0  0  0  0  0  0  0  0  0  0
  2  1  1  0  0  0  0
  2  3  1  0  0  0  0
  3  4  1  0  0  0  0
  4  5  2  0  0  0  0
  5  6  1  0  0  0  0
  6  7  2  0  0  0  0
  6  8  1  0  0  0  0
  8  9  1  0  0  0  0
  9 10  1  0  0  0  0
  4 10  1  0  0  0  0
 10 11  1  1  0  0  0
 10 12  1  0  0  0  0
 12 13  1  1  0  0  0
 13 14  1  0  0  0  0
 14 15  1  0  0  0  0
 15 16  1  1  0  0  0
 15 17  1  0  0  0  0
 17 18  1  1  0  0  0
 18 19  1  0  0  0  0
 20 19  1  6  0  0  0
 15 20  1  0  0  0  0
 20 21  1  0  0  0  0
 20 22  1  1  0  0  0
 17 23  1  0  0  0  0
 23  2  1  6  0  0  0
 12 23  1  0  0  0  0
  2 24  1  0  0  0  0
M  END
> <InChI>
InChI=1S/C21H32O3/c1-18-8-5-14(22)11-13(18)12-20(3,23)17-15(18)6-9-19(2)16(17)7-10-21(19,4)24/h11,15-17,23-24H,5-10,12H2,1-4H3/t15-,16-,17+,18-,19-,20?,21-/m0/s1

> <InChIKey>
GBOGGLJYRSANRV-USYBBNHWSA-N

> <SMILES>
CC1(CC2=CC(=O)CC[C@]2(C)[C@H]3CC[C@@]4(C)[C@@H](CC[C@]4(C)O)[C@H]13)O

> <Synonyms>


> <PUBCHEM_CID>


> <Molecular_formula>
C21H32O3

> <Major_Isotope_Mass>
332.23514488399996

> <ALogP>
2.5738999999999974

> <Lipinski_Violations>
0

> <Insecticide_Likeness_Violations>
0

> <Post_Em_Herbicide_Likeness_Violations>
0

> <Metabolite_ID>
BTM00008

> <Reaction>
Hydroxylation of penultimate aliphatic tertiary carbon

> <Reaction_ID>
BTMR1075

> <Enzyme(s)>
CYP2A6
CYP2B6
CYP2C8
CYP2C9
CYP2D6
CYP3A4

> <Biosystem>
HUMAN

> <Precursor_ID>


> <Precursor_SMILES>
C[C@@H]1CC2=CC(=O)CC[C@]2(C)[C@H]3CC[C@@]4(C)[C@@H](CC[C@]4(C)O)[C@H]13

> <Precursor_InChI>
InChI=1S/C21H32O2/c1-13-11-14-12-15(22)5-8-19(14,2)16-6-9-20(3)17(18(13)16)7-10-21(20,4)23/h12-13,16-18,23H,5-11H2,1-4H3/t13-,16+,17+,18-,19+,20+,21+/m1/s1

> <Precursor_InChIKey>
IVFYLRMMHVYGJH-VLOLGRDOSA-N

> <Precursor_ALogP>


> <Precursor_Major_Isotope_Mass>
316.2402

$$$$
BTM00009
  CDK     09122622082D

 24 27  0  0  1  0  0  0  0  0999 V2000
    2.2189   -2.5602    0.0000 C   0  0  0  0  0  0  0  0  0  0  0  0
    0.9200   -1.8100    0.0000 C   0  0  2  0  0  0  0  0  0  0  0  0
   -0.3800   -2.5600    0.0000 C   0  0  0  0  0  0  0  0  0  0  0  0
   -1.6800   -1.8100    0.0000 C   0  0  0  0  0  0  0  0  0  0  0  0
   -2.9800   -2.5600    0.0000 C   0  0  0  0  0  0  0  0  0  0  0  0
   -4.2800   -1.8100    0.0000 C   0  0  0  0  0  0  0  0  0  0  0  0
   -5.5789   -2.5602    0.0000 O   0  0  0  0  0  0  0  0  0  0  0  0
   -4.2800   -0.3100    0.0000 C   0  0  0  0  0  0  0  0  0  0  0  0
   -2.9800    0.4400    0.0000 C   0  0  0  0  0  0  0  0  0  0  0  0
   -1.6800   -0.3100    0.0000 C   0  0  1  0  0  0  0  0  0  0  0  0
   -1.6800    1.1900    0.0000 C   0  0  0  0  0  0  0  0  0  0  0  0
   -0.3800    0.4400    0.0000 C   0  0  1  0  0  0  0  0  0  0  0  0
   -0.3800    1.9400    0.0000 C   0  0  0  0  0  0  0  0  0  0  0  0
    0.9200    2.6900    0.0000 C   0  0  0  0  0  0  0  0  0  0  0  0
    2.2200    1.9400    0.0000 C   0  0  1  0  0  0  0  0  0  0  0  0
    2.3787    3.4316    0.0000 C   0  0  0  0  0  0  0  0  0  0  0  0
    2.2200    0.4400    0.0000 C   0  0  1  0  0  0  0  0  0  0  0  0
    3.6500   -0.0200    0.0000 C   0  0  0  0  0  0  0  0  0  0  0  0
    4.5300    1.1900    0.0000 C   0  0  0  0  0  0  0  0  0  0  0  0
    3.6500    2.4000    0.0000 C   0  0  1  0  0  0  0  0  0  0  0  0
    4.9495    3.1491    0.0000 C   0  0  0  0  0  0  0  0  0  0  0  0
    3.6962    0.9007    0.0000 O   0  0  0  0  0  0  0  0  0  0  0  0
    0.9200   -0.3100    0.0000 C   0  0  2  0  0  0  0  0  0  0  0  0
    2.2187   -4.0602    0.0000 O   0  0  0  0  0  0  0  0  0  0  0  0
  2  1  1  6  0  0  0
  2  3  1  0  0  0  0
  3  4  1  0  0  0  0
  4  5  2  0  0  0  0
  5  6  1  0  0  0  0
  6  7  2  0  0  0  0
  6  8  1  0  0  0  0
  8  9  1  0  0  0  0
  9 10  1  0  0  0  0
  4 10  1  0  0  0  0
 10 11  1  1  0  0  0
 10 12  1  0  0  0  0
 12 13  1  1  0  0  0
 13 14  1  0  0  0  0
 14 15  1  0  0  0  0
 15 16  1  1  0  0  0
 15 17  1  0  0  0  0
 17 18  1  1  0  0  0
 18 19  1  0  0  0  0
 20 19  1  6  0  0  0
 15 20  1  0  0  0  0
 20 21  1  0  0  0  0
 20 22  1  1  0  0  0
 17 23  1  0  0  0  0
 23  2  1  6  0  0  0
 12 23  1  0  0  0  0
 24  1  1  0  0  0  0
M  END
> <InChI>
InChI=1S/C21H32O3/c1-19-7-4-15(23)11-14(19)10-13(12-22)18-16(19)5-8-20(2)17(18)6-9-21(20,3)24/h11,13,16-18,22,24H,4-10,12H2,1-3H3/t13-,16-,17-,18+,19-,20-,21-/m0/s1

> <InChIKey>
SHPPAHHGLNNRTN-PVPPCFLZSA-N

> <SMILES>
C([C@@H]1CC2=CC(=O)CC[C@]2(C)[C@H]3CC[C@@]4(C)[C@@H](CC[C@]4(C)O)[C@H]13)O

> <Synonyms>


> <PUBCHEM_CID>


> <Molecular_formula>
C21H32O3

> <Major_Isotope_Mass>
332.23514488399996

> <ALogP>
2.6318999999999972

> <Lipinski_Violations>
0

> <Insecticide_Likeness_Violations>
0

> <Post_Em_Herbicide_Likeness_Violations>
0

> <Metabolite_ID>
BTM00009

> <Reaction>
Hydroxylation of methyl carbon adjacent to aliphatic ring

> <Reaction_ID>
BTMR0054

> <Enzyme(s)>
CYP2B6
CYP2C8
CYP2C9
CYP2C19
CYP2D6
CYP3A4

> <Biosystem>
HUMAN

> <Precursor_ID>


> <Precursor_SMILES>
C[C@@H]1CC2=CC(=O)CC[C@]2(C)[C@H]3CC[C@@]4(C)[C@@H](CC[C@]4(C)O)[C@H]13

> <Precursor_InChI>
InChI=1S/C21H32O2/c1-13-11-14-12-15(22)5-8-19(14,2)16-6-9-20(3)17(18(13)16)7-10-21(20,4)23/h12-13,16-18,23H,5-11H2,1-4H3/t13-,16+,17+,18-,19+,20+,21+/m1/s1

> <Precursor_InChIKey>
IVFYLRMMHVYGJH-VLOLGRDOSA-N

> <Precursor_ALogP>


> <Precursor_Major_Isotope_Mass>
316.2402

$$$$
BTM00010
  CDK     09122622082D

 24 27  0  0  1  0  0  0  0  0999 V2000
    2.2189   -2.5602    0.0000 C   0  0  0  0  0  0  0  0  0  0  0  0
    0.9200   -1.8100    0.0000 C   0  0  2  0  0  0  0  0  0  0  0  0
   -0.3800   -2.5600    0.0000 C   0  0  0  0  0  0  0  0  0  0  0  0
   -1.6800   -1.8100    0.0000 C   0  0  0  0  0  0  0  0  0  0  0  0
   -2.9800   -2.5600    0.0000 C   0  0  0  0  0  0  0  0  0  0  0  0
   -4.2800   -1.8100    0.0000 C   0  0  0  0  0  0  0  0  0  0  0  0
   -5.5789   -2.5602    0.0000 O   0  0  0  0  0  0  0  0  0  0  0  0
   -4.2800   -0.3100    0.0000 C   0  0  0  0  0  0  0  0  0  0  0  0
   -2.9800    0.4400    0.0000 C   0  0  0  0  0  0  0  0  0  0  0  0
   -1.6800   -0.3100    0.0000 C   0  0  1  0  0  0  0  0  0  0  0  0
   -1.6800    1.1900    0.0000 C   0  0  0  0  0  0  0  0  0  0  0  0
   -0.3800    0.4400    0.0000 C   0  0  1  0  0  0  0  0  0  0  0  0
   -0.3800    1.9400    0.0000 C   0  0  0  0  0  0  0  0  0  0  0  0
    0.9200    2.6900    0.0000 C   0  0  0  0  0  0  0  0  0  0  0  0
    2.2200    1.9400    0.0000 C   0  0  1  0  0  0  0  0  0  0  0  0
    2.3787    3.4316    0.0000 C   0  0  0  0  0  0  0  0  0  0  0  0
    2.2200    0.4400    0.0000 C   0  0  1  0  0  0  0  0  0  0  0  0
    3.6500   -0.0200    0.0000 C   0  0  0  0  0  0  0  0  0  0  0  0
    4.5300    1.1900    0.0000 C   0  0  0  0  0  0  0  0  0  0  0  0
    3.6500    2.4000    0.0000 C   0  0  1  0  0  0  0  0  0  0  0  0
    4.9495    3.1491    0.0000 C   0  0  0  0  0  0  0  0  0  0  0  0
    3.6962    0.9007    0.0000 O   0  0  0  0  0  0  0  0  0  0  0  0
    0.9200   -0.3100    0.0000 C   0  0  2  0  0  0  0  0  0  0  0  0
    4.9505    4.6491    0.0000 O   0  0  0  0  0  0  0  0  0  0  0  0
  2  1  1  6  0  0  0
  2  3  1  0  0  0  0
  3  4  1  0  0  0  0
  4  5  2  0  0  0  0
  5  6  1  0  0  0  0
  6  7  2  0  0  0  0
  6  8  1  0  0  0  0
  8  9  1  0  0  0  0
  9 10  1  0  0  0  0
  4 10  1  0  0  0  0
 10 11  1  1  0  0  0
 10 12  1  0  0  0  0
 12 13  1  1  0  0  0
 13 14  1  0  0  0  0
 14 15  1  0  0  0  0
 15 16  1  1  0  0  0
 15 17  1  0  0  0  0
 17 18  1  1  0  0  0
 18 19  1  0  0  0  0
 20 19  1  6  0  0  0
 15 20  1  0  0  0  0
 20 21  1  0  0  0  0
 20 22  1  1  0  0  0
 17 23  1  0  0  0  0
 23  2  1  6  0  0  0
 12 23  1  0  0  0  0
 24 21  1  0  0  0  0
M  END
> <InChI>
InChI=1S/C21H32O3/c1-13-10-14-11-15(23)4-7-19(14,2)16-5-8-20(3)17(18(13)16)6-9-21(20,24)12-22/h11,13,16-18,22,24H,4-10,12H2,1-3H3/t13-,16+,17+,18-,19+,20+,21-/m1/s1

> <InChIKey>
LCQACGJUPLHJLC-GDOJDBDTSA-N

> <SMILES>
C[C@@H]1CC2=CC(=O)CC[C@]2(C)[C@H]3CC[C@@]4(C)[C@@H](CC[C@]4(CO)O)[C@H]13

> <Synonyms>


> <PUBCHEM_CID>


> <Molecular_formula>
C21H32O3

> <Major_Isotope_Mass>
332.23514488399996

> <ALogP>
2.9018999999999977

> <Lipinski_Violations>
0

> <Insecticide_Likeness_Violations>
0

> <Post_Em_Herbicide_Likeness_Violations>
0

> <Metabolite_ID>
BTM00010

> <Reaction>
Hydroxylation of methyl carbon adjacent to aliphatic ring

> <Reaction_ID>
BTMR0054

> <Enzyme(s)>
CYP2B6
CYP2C8
CYP2C9
CYP2C19
CYP2D6
CYP3A4

> <Biosystem>
HUMAN

> <Precursor_ID>


> <Precursor_SMILES>
C[C@@H]1CC2=CC(=O)CC[C@]2(C)[C@H]3CC[C@@]4(C)[C@@H](CC[C@]4(C)O)[C@H]13

> <Precursor_InChI>
InChI=1S/C21H32O2/c1-13-11-14-12-15(22)5-8-19(14,2)16-6-9-20(3)17(18(13)16)7-10-21(20,4)23/h12-13,16-18,23H,5-11H2,1-4H3/t13-,16+,17+,18-,19+,20+,21+/m1/s1

> <Precursor_InChIKey>
IVFYLRMMHVYGJH-VLOLGRDOSA-N

> <Precursor_ALogP>


> <Precursor_Major_Isotope_Mass>
316.2402

$$$$
BTM00011
  CDK     09122622082D

 24 27  0  0  1  0  0  0  0  0999 V2000
    2.2189   -2.5602    0.0000 C   0  0  0  0  0  0  0  0  0  0  0  0
    0.9200   -1.8100    0.0000 C   0  0  2  0  0  0  0  0  0  0  0  0
   -0.3800   -2.5600    0.0000 C   0  0  0  0  0  0  0  0  0  0  0  0
   -1.6800   -1.8100    0.0000 C   0  0  0  0  0  0  0  0  0  0  0  0
   -2.9800   -2.5600    0.0000 C   0  0  0  0  0  0  0  0  0  0  0  0
   -4.2800   -1.8100    0.0000 C   0  0  0  0  0  0  0  0  0  0  0  0
   -5.5789   -2.5602    0.0000 O   0  0  0  0  0  0  0  0  0  0  0  0
   -4.2800   -0.3100    0.0000 C   0  0  0  0  0  0  0  0  0  0  0  0
   -2.9800    0.4400    0.0000 C   0  0  0  0  0  0  0  0  0  0  0  0
   -1.6800   -0.3100    0.0000 C   0  0  1  0  0  0  0  0  0  0  0  0
   -1.6800    1.1900    0.0000 C   0  0  0  0  0  0  0  0  0  0  0  0
   -0.3800    0.4400    0.0000 C   0  0  1  0  0  0  0  0  0  0  0  0
   -0.3800    1.9400    0.0000 C   0  0  0  0  0  0  0  0  0  0  0  0
    0.9200    2.6900    0.0000 C   0  0  0  0  0  0  0  0  0  0  0  0
    2.2200    1.9400    0.0000 C   0  0  1  0  0  0  0  0  0  0  0  0
    2.3787    3.4316    0.0000 C   0  0  0  0  0  0  0  0  0  0  0  0
    2.2200    0.4400    0.0000 C   0  0  1  0  0  0  0  0  0  0  0  0
    3.6500   -0.0200    0.0000 C   0  0  0  0  0  0  0  0  0  0  0  0
    4.5300    1.1900    0.0000 C   0  0  0  0  0  0  0  0  0  0  0  0
    3.6500    2.4000    0.0000 C   0  0  1  0  0  0  0  0  0  0  0  0
    4.9495    3.1491    0.0000 C   0  0  0  0  0  0  0  0  0  0  0  0
    3.2897    3.8561    0.0000 O   0  0  0  0  0  0  0  0  0  0  0  0
    0.9200   -0.3100    0.0000 C   0  0  2  0  0  0  0  0  0  0  0  0
    1.1664    4.3148    0.0000 O   0  0  0  0  0  0  0  0  0  0  0  0
  2  1  1  6  0  0  0
  2  3  1  0  0  0  0
  3  4  1  0  0  0  0
  4  5  2  0  0  0  0
  5  6  1  0  0  0  0
  6  7  2  0  0  0  0
  6  8  1  0  0  0  0
  8  9  1  0  0  0  0
  9 10  1  0  0  0  0
  4 10  1  0  0  0  0
 10 11  1  1  0  0  0
 10 12  1  0  0  0  0
 12 13  1  1  0  0  0
 13 14  1  0  0  0  0
 14 15  1  0  0  0  0
 15 16  1  1  0  0  0
 15 17  1  0  0  0  0
 17 18  1  1  0  0  0
 18 19  1  0  0  0  0
 19 20  1  0  0  0  0
 15 20  1  0  0  0  0
 20 21  1  6  0  0  0
 20 22  1  1  0  0  0
 17 23  1  0  0  0  0
 23  2  1  6  0  0  0
 12 23  1  0  0  0  0
 24 16  1  0  0  0  0
M  END
> <InChI>
InChI=1S/C21H32O3/c1-13-10-14-11-15(23)4-7-19(14,2)16-6-9-21(12-22)17(18(13)16)5-8-20(21,3)24/h11,13,16-18,22,24H,4-10,12H2,1-3H3/t13-,16+,17+,18-,19+,20+,21-/m1/s1

> <InChIKey>
JAMAXJBSLQRGIV-GDOJDBDTSA-N

> <SMILES>
C[C@@H]1CC2=CC(=O)CC[C@]2(C)[C@H]3CC[C@@]4(CO)[C@@H](CC[C@]4(C)O)[C@H]13

> <Synonyms>


> <PUBCHEM_CID>


> <Molecular_formula>
C21H32O3

> <Major_Isotope_Mass>
332.23514488399996

> <ALogP>
2.6993999999999967

> <Lipinski_Violations>
0

> <Insecticide_Likeness_Violations>
0

> <Post_Em_Herbicide_Likeness_Violations>
0

> <Metabolite_ID>
BTM00011

> <Reaction>
Hydroxylation of methyl carbon adjacent to aliphatic ring

> <Reaction_ID>
BTMR0054

> <Enzyme(s)>
CYP2B6
CYP2C8
CYP2C9
CYP2C19
CYP2D6
CYP3A4

> <Biosystem>
HUMAN

> <Precursor_ID>


> <Precursor_SMILES>
C[C@@H]1CC2=CC(=O)CC[C@]2(C)[C@H]3CC[C@@]4(C)[C@@H](CC[C@]4(C)O)[C@H]13

> <Precursor_InChI>
InChI=1S/C21H32O2/c1-13-11-14-12-15(22)5-8-19(14,2)16-6-9-20(3)17(18(13)16)7-10-21(20,4)23/h12-13,16-18,23H,5-11H2,1-4H3/t13-,16+,17+,18-,19+,20+,21+/m1/s1

> <Precursor_InChIKey>
IVFYLRMMHVYGJH-VLOLGRDOSA-N

> <Precursor_ALogP>


> <Precursor_Major_Isotope_Mass>
316.2402

$$$$
BTM00012
  CDK     09122622082D

 24 27  0  0  1  0  0  0  0  0999 V2000
    2.2189   -2.5602    0.0000 C   0  0  0  0  0  0  0  0  0  0  0  0
    0.9200   -1.8100    0.0000 C   0  0  2  0  0  0  0  0  0  0  0  0
   -0.3800   -2.5600    0.0000 C   0  0  0  0  0  0  0  0  0  0  0  0
   -1.6800   -1.8100    0.0000 C   0  0  0  0  0  0  0  0  0  0  0  0
   -2.9800   -2.5600    0.0000 C   0  0  0  0  0  0  0  0  0  0  0  0
   -4.2800   -1.8100    0.0000 C   0  0  0  0  0  0  0  0  0  0  0  0
   -5.5789   -2.5602    0.0000 O   0  0  0  0  0  0  0  0  0  0  0  0
   -4.2800   -0.3100    0.0000 C   0  0  0  0  0  0  0  0  0  0  0  0
   -2.9800    0.4400    0.0000 C   0  0  0  0  0  0  0  0  0  0  0  0
   -1.6800   -0.3100    0.0000 C   0  0  1  0  0  0  0  0  0  0  0  0
   -1.6800    1.1900    0.0000 C   0  0  0  0  0  0  0  0  0  0  0  0
   -0.3800    0.4400    0.0000 C   0  0  1  0  0  0  0  0  0  0  0  0
   -0.3800    1.9400    0.0000 C   0  0  0  0  0  0  0  0  0  0  0  0
    0.9200    2.6900    0.0000 C   0  0  0  0  0  0  0  0  0  0  0  0
    2.2200    1.9400    0.0000 C   0  0  1  0  0  0  0  0  0  0  0  0
    2.3787    3.4316    0.0000 C   0  0  0  0  0  0  0  0  0  0  0  0
    2.2200    0.4400    0.0000 C   0  0  1  0  0  0  0  0  0  0  0  0
    3.6500   -0.0200    0.0000 C   0  0  0  0  0  0  0  0  0  0  0  0
    4.5300    1.1900    0.0000 C   0  0  0  0  0  0  0  0  0  0  0  0
    3.6500    2.4000    0.0000 C   0  0  1  0  0  0  0  0  0  0  0  0
    4.9495    3.1491    0.0000 C   0  0  0  0  0  0  0  0  0  0  0  0
    3.6962    0.9007    0.0000 O   0  0  0  0  0  0  0  0  0  0  0  0
    0.9200   -0.3100    0.0000 C   0  0  2  0  0  0  0  0  0  0  0  0
   -2.9790    1.9400    0.0000 O   0  0  0  0  0  0  0  0  0  0  0  0
  2  1  1  6  0  0  0
  2  3  1  0  0  0  0
  3  4  1  0  0  0  0
  4  5  2  0  0  0  0
  5  6  1  0  0  0  0
  6  7  2  0  0  0  0
  6  8  1  0  0  0  0
  8  9  1  0  0  0  0
  9 10  1  0  0  0  0
  4 10  1  0  0  0  0
 10 11  1  1  0  0  0
 10 12  1  0  0  0  0
 12 13  1  1  0  0  0
 13 14  1  0  0  0  0
 14 15  1  0  0  0  0
 15 16  1  1  0  0  0
 15 17  1  0  0  0  0
 17 18  1  1  0  0  0
 18 19  1  0  0  0  0
 20 19  1  6  0  0  0
 15 20  1  0  0  0  0
 20 21  1  0  0  0  0
 20 22  1  1  0  0  0
 17 23  1  0  0  0  0
 23  2  1  6  0  0  0
 12 23  1  0  0  0  0
 24 11  1  0  0  0  0
M  END
> <InChI>
InChI=1S/C21H32O3/c1-13-10-14-11-15(23)4-9-21(14,12-22)17-5-7-19(2)16(18(13)17)6-8-20(19,3)24/h11,13,16-18,22,24H,4-10,12H2,1-3H3/t13-,16+,17+,18+,19+,20+,21-/m1/s1

> <InChIKey>
UOLKXQWCTARZBW-GWXLLEQUSA-N

> <SMILES>
C[C@@H]1CC2=CC(=O)CC[C@]2(CO)[C@H]3CC[C@@]4(C)[C@@H](CC[C@]4(C)O)[C@H]13

> <Synonyms>


> <PUBCHEM_CID>


> <Molecular_formula>
C21H32O3

> <Major_Isotope_Mass>
332.23514488399996

> <ALogP>
2.6993999999999967

> <Lipinski_Violations>
0

> <Insecticide_Likeness_Violations>
0

> <Post_Em_Herbicide_Likeness_Violations>
0

> <Metabolite_ID>
BTM00012

> <Reaction>
Hydroxylation of methyl carbon adjacent to aliphatic ring

> <Reaction_ID>
BTMR0054

> <Enzyme(s)>
CYP2B6
CYP2C8
CYP2C9
CYP2C19
CYP2D6
CYP3A4

> <Biosystem>
HUMAN

> <Precursor_ID>


> <Precursor_SMILES>
C[C@@H]1CC2=CC(=O)CC[C@]2(C)[C@H]3CC[C@@]4(C)[C@@H](CC[C@]4(C)O)[C@H]13

> <Precursor_InChI>
InChI=1S/C21H32O2/c1-13-11-14-12-15(22)5-8-19(14,2)16-6-9-20(3)17(18(13)16)7-10-21(20,4)23/h12-13,16-18,23H,5-11H2,1-4H3/t13-,16+,17+,18-,19+,20+,21+/m1/s1

> <Precursor_InChIKey>
IVFYLRMMHVYGJH-VLOLGRDOSA-N

> <Precursor_ALogP>


> <Precursor_Major_Isotope_Mass>
316.2402

$$$$
BTM00013
  CDK     09122622082D

 23 26  0  0  1  0  0  0  0  0999 V2000
    2.2189   -2.5602    0.0000 C   0  0  0  0  0  0  0  0  0  0  0  0
    0.9200   -1.8100    0.0000 C   0  0  2  0  0  0  0  0  0  0  0  0
   -0.3800   -2.5600    0.0000 C   0  0  0  0  0  0  0  0  0  0  0  0
   -1.6800   -1.8100    0.0000 C   0  0  0  0  0  0  0  0  0  0  0  0
   -2.9800   -2.5600    0.0000 C   0  0  0  0  0  0  0  0  0  0  0  0
   -4.2800   -1.8100    0.0000 C   0  0  0  0  0  0  0  0  0  0  0  0
   -5.5789   -2.5602    0.0000 O   0  0  0  0  0  0  0  0  0  0  0  0
   -4.2800   -0.3100    0.0000 C   0  0  0  0  0  0  0  0  0  0  0  0
   -2.9800    0.4400    0.0000 C   0  0  0  0  0  0  0  0  0  0  0  0
   -1.6800   -0.3100    0.0000 C   0  0  1  0  0  0  0  0  0  0  0  0
   -1.6800    1.1900    0.0000 C   0  0  0  0  0  0  0  0  0  0  0  0
   -0.3800    0.4400    0.0000 C   0  0  1  0  0  0  0  0  0  0  0  0
   -0.3800    1.9400    0.0000 C   0  0  0  0  0  0  0  0  0  0  0  0
    0.9200    2.6900    0.0000 C   0  0  0  0  0  0  0  0  0  0  0  0
    2.2200    1.9400    0.0000 C   0  0  1  0  0  0  0  0  0  0  0  0
    2.3787    3.4316    0.0000 C   0  0  0  0  0  0  0  0  0  0  0  0
    2.2200    0.4400    0.0000 C   0  0  1  0  0  0  0  0  0  0  0  0
    3.6500   -0.0200    0.0000 C   0  0  0  0  0  0  0  0  0  0  0  0
    4.5300    1.1900    0.0000 C   0  0  0  0  0  0  0  0  0  0  0  0
    3.6500    2.4000    0.0000 C   0  0  1  0  0  0  0  0  0  0  0  0
    4.9495    3.1491    0.0000 C   0  0  0  0  0  0  0  0  0  0  0  0
    3.6962    0.9007    0.0000 O   0  0  0  0  0  0  0  0  0  0  0  0
    0.9200   -0.3100    0.0000 C   0  0  2  0  0  0  0  0  0  0  0  0
  2  1  1  6  0  0  0
  2  3  1  0  0  0  0
  3  4  1  0  0  0  0
  4  5  1  0  0  0  0
  5  6  1  0  0  0  0
  6  7  2  0  0  0  0
  6  8  1  0  0  0  0
  8  9  1  0  0  0  0
  9 10  1  0  0  0  0
  4 10  1  0  0  0  0
 10 11  1  1  0  0  0
 10 12  1  0  0  0  0
 12 13  1  1  0  0  0
 13 14  1  0  0  0  0
 14 15  1  0  0  0  0
 15 16  1  1  0  0  0
 15 17  1  0  0  0  0
 17 18  1  1  0  0  0
 18 19  1  0  0  0  0
 20 19  1  6  0  0  0
 15 20  1  0  0  0  0
 20 21  1  0  0  0  0
 20 22  1  1  0  0  0
 17 23  1  0  0  0  0
 23  2  1  6  0  0  0
 12 23  1  0  0  0  0
M  END
> <InChI>
InChI=1S/C21H34O2/c1-13-11-14-12-15(22)5-8-19(14,2)16-6-9-20(3)17(18(13)16)7-10-21(20,4)23/h13-14,16-18,23H,5-12H2,1-4H3/t13-,14?,16+,17+,18-,19+,20+,21+/m1/s1

> <InChIKey>
OXGWMWXYFIDNLU-QRJNRNDLSA-N

> <SMILES>
C[C@@H]1CC2CC(=O)CC[C@]2(C)[C@H]3CC[C@@]4(C)[C@@H](CC[C@]4(C)O)[C@H]13

> <Synonyms>


> <PUBCHEM_CID>


> <Molecular_formula>
C21H34O2

> <Major_Isotope_Mass>
318.255880328

> <ALogP>
3.6187000000000022

> <Lipinski_Violations>
1

> <Insecticide_Likeness_Violations>
0

> <Post_Em_Herbicide_Likeness_Violations>
0

> <Metabolite_ID>
BTM00013

> <Reaction>
Reduction of alpha,beta-unsaturated carbon-carbon double bond adjacent to electron withdrawing group

> <Reaction_ID>
BTMR1209

> <Enzyme(s)>
EC 1.6.99.1

> <Biosystem>
GUTMICRO

> <Precursor_ID>


> <Precursor_SMILES>
C[C@@H]1CC2=CC(=O)CC[C@]2(C)[C@H]3CC[C@@]4(C)[C@@H](CC[C@]4(C)O)[C@H]13

> <Precursor_InChI>
InChI=1S/C21H32O2/c1-13-11-14-12-15(22)5-8-19(14,2)16-6-9-20(3)17(18(13)16)7-10-21(20,4)23/h12-13,16-18,23H,5-11H2,1-4H3/t13-,16+,17+,18-,19+,20+,21+/m1/s1

> <Precursor_InChIKey>
IVFYLRMMHVYGJH-VLOLGRDOSA-N

> <Precursor_ALogP>


> <Precursor_Major_Isotope_Mass>
316.2402

$$$$
