BTM00001
  CDK     09122622082D

 21 24  0  0  1  0  0  0  0  0999 V2000
   -1.6800    1.1900    0.0000 C   0  0  0  0  0  0  0  0  0  0  0  0
   -1.6800   -0.3100    0.0000 C   0  0  2  0  0  0  0  0  0  0  0  0
   -2.9800    0.4400    0.0000 C   0  0  0  0  0  0  0  0  0  0  0  0
   -4.2800   -0.3100    0.0000 C   0  0  0  0  0  0  0  0  0  0  0  0
   -4.2800   -1.8100    0.0000 C   0  0  0  0  0  0  0  0  0  0  0  0
   -5.5789   -2.5602    0.0000 O   0  0  0  0  0  0  0  0  0  0  0  0
   -2.9800   -2.5600    0.0000 C   0  0  0  0  0  0  0  0  0  0  0  0
   -1.6800   -1.8100    0.0000 C   0  0  0  0  0  0  0  0  0  0  0  0
   -0.3800   -2.5600    0.0000 C   0  0  0  0  0  0  0  0  0  0  0  0
    0.9200   -1.8100    0.0000 C   0  0  0  0  0  0  0  0  0  0  0  0
    0.9200   -0.3100    0.0000 C   0  0  2  0  0  0  0  0  0  0  0  0
   -0.3800    0.4400    0.0000 C   0  0  2  0  0  0  0  0  0  0  0  0
   -0.3800    1.9400    0.0000 C   0  0  0  0  0  0  0  0  0  0  0  0
    0.9200    2.6900    0.0000 C   0  0  0  0  0  0  0  0  0  0  0  0
    2.2200    1.9400    0.0000 C   0  0  2  0  0  0  0  0  0  0  0  0
    2.3787    3.4316    0.0000 C   0  0  0  0  0  0  0  0  0  0  0  0
    3.6500    2.4000    0.0000 C   0  0  0  0  0  0  0  0  0  0  0  0
    4.1153    3.8260    0.0000 O   0  0  0  0  0  0  0  0  0  0  0  0
    4.5300    1.1900    0.0000 C   0  0  0  0  0  0  0  0  0  0  0  0
    3.6500   -0.0200    0.0000 C   0  0  0  0  0  0  0  0  0  0  0  0
    2.2200    0.4400    0.0000 C   0  0  1  0  0  0  0  0  0  0  0  0
  2  1  1  1  0  0  0
  2  3  1  0  0  0  0
  3  4  1  0  0  0  0
  4  5  1  0  0  0  0
  5  6  1  0  0  0  0
  5  7  1  0  0  0  0
  7  8  2  0  0  0  0
  2  8  1  0  0  0  0
  8  9  1  0  0  0  0
  9 10  1  0  0  0  0
 11 10  1  6  0  0  0
 11 12  1  0  0  0  0
  2 12  1  0  0  0  0
 12 13  1  1  0  0  0
 13 14  1  0  0  0  0
 14 15  1  0  0  0  0
 15 16  1  1  0  0  0
 15 17  1  0  0  0  0
 17 18  2  0  0  0  0
 17 19  1  0  0  0  0
 19 20  1  0  0  0  0
 21 20  1  1  0  0  0
 11 21  1  0  0  0  0
 15 21  1  0  0  0  0
M  END
> <InChI>
InChI=1S/C19H28O2/c1-18-9-7-13(20)11-12(18)3-4-14-15-5-6-17(21)19(15,2)10-8-16(14)18/h11,13-16,20H,3-10H2,1-2H3/t13?,14-,15-,16-,18-,19-/m0/s1

> <InChIKey>
VMYTXBKVYDESSJ-HQEMIIEJSA-N

> <SMILES>
C[C@]12CCC(O)C=C1CC[C@@H]3[C@@H]2CC[C@]4(C)C(=O)CC[C@@H]34

> <Synonyms>


> <PUBCHEM_CID>


> <Molecular_formula>
C19H28O2

> <Major_Isotope_Mass>
288.208930136

> <ALogP>
3.3332999999999986

> <Lipinski_Violations>
0

> <Insecticide_Likeness_Violations>
0

> <Post_Em_Herbicide_Likeness_Violations>
0

> <Metabolite_ID>
BTM00001

> <Reaction>
Reduction of carbonyl

> <Reaction_ID>
BTMR0368

> <Enzyme(s)>
EC 1.1.1.184

> <Biosystem>
HUMAN

> <Precursor_ID>


> <Precursor_SMILES>
C[C@]12CCC(=O)C=C1CC[C@@H]3[C@@H]2CC[C@]4(C)C(=O)CC[C@@H]34

> <Precursor_InChI>
InChI=1S/C19H26O2/c1-18-9-7-13(20)11-12(18)3-4-14-15-5-6-17(21)19(15,2)10-8-16(14)18/h11,14-16H,3-10H2,1-2H3/t14-,15-,16-,18-,19-/m0/s1

> <Precursor_InChIKey>
AEMFNILZOJDQLW-QAGGRKNESA-N

> <Precursor_ALogP>


> <Precursor_Major_Isotope_Mass>
286.1932

$$$$
BTM00002
  CDK     09122622082D

  2  1  0  0  0  0  0  0  0  0999 V2000
    0.0000    0.0000    0.0000 C   0  0  0  0  0  0  0  0  0  0  0  0
    1.5000    0.0000    0.0000 O   0  0  0  0  0  0  0  0  0  0  0  0
  2  1  1  0  0  0  0
M  END
> <InChI>
InChI=1S/CH4O/c1-2/h2H,1H3

> <InChIKey>
OKKJLVBELUTLKV-UHFFFAOYSA-N

> <SMILES>
CO

> <Synonyms>


> <PUBCHEM_CID>


> <Molecular_formula>
CH4O

> <Major_Isotope_Mass>
32.026214748

> <ALogP>
-0.3580000000000002

> <Lipinski_Violations>
0

> <Insecticide_Likeness_Violations>
0

> <Post_Em_Herbicide_Likeness_Violations>
0

> <Metabolite_ID>
BTM00002

> <Reaction>
Aromatization of androgen

> <Reaction_ID>
BTMR0397

> <Enzyme(s)>
EC 1.14.14.14

> <Biosystem>
HUMAN

> <Precursor_ID>


> <Precursor_SMILES>
C[C@]12CCC(=O)C=C1CC[C@@H]3[C@@H]2CC[C@]4(C)C(=O)CC[C@@H]34

> <Precursor_InChI>
InChI=1S/C19H26O2/c1-18-9-7-13(20)11-12(18)3-4-14-15-5-6-17(21)19(15,2)10-8-16(14)18/h11,14-16H,3-10H2,1-2H3/t14-,15-,16-,18-,19-/m0/s1

> <Precursor_InChIKey>
AEMFNILZOJDQLW-QAGGRKNESA-N

> <Precursor_ALogP>


> <Precursor_Major_Isotope_Mass>
286.1932

$$$$
BTM00003
  CDK     09122622082D

 20 23  0  0  1  0  0  0  0  0999 V2000
   -1.6800   -0.3100    0.0000 C   0  0  0  0  0  0  0  0  0  0  0  0
   -2.9800    0.4400    0.0000 C   0  0  0  0  0  0  0  0  0  0  0  0
   -4.2800   -0.3100    0.0000 C   0  0  0  0  0  0  0  0  0  0  0  0
   -4.2800   -1.8100    0.0000 C   0  0  0  0  0  0  0  0  0  0  0  0
   -5.5789   -2.5602    0.0000 O   0  0  0  0  0  0  0  0  0  0  0  0
   -2.9800   -2.5600    0.0000 C   0  0  0  0  0  0  0  0  0  0  0  0
   -1.6800   -1.8100    0.0000 C   0  0  0  0  0  0  0  0  0  0  0  0
   -0.3800   -2.5600    0.0000 C   0  0  0  0  0  0  0  0  0  0  0  0
    0.9200   -1.8100    0.0000 C   0  0  0  0  0  0  0  0  0  0  0  0
    0.9200   -0.3100    0.0000 C   0  0  2  0  0  0  0  0  0  0  0  0
   -0.3800    0.4400    0.0000 C   0  0  2  0  0  0  0  0  0  0  0  0
   -0.3800    1.9400    0.0000 C   0  0  0  0  0  0  0  0  0  0  0  0
    0.9200    2.6900    0.0000 C   0  0  0  0  0  0  0  0  0  0  0  0
    2.2200    1.9400    0.0000 C   0  0  2  0  0  0  0  0  0  0  0  0
    2.3787    3.4316    0.0000 C   0  0  0  0  0  0  0  0  0  0  0  0
    3.6500    2.4000    0.0000 C   0  0  0  0  0  0  0  0  0  0  0  0
    4.1153    3.8260    0.0000 O   0  0  0  0  0  0  0  0  0  0  0  0
    4.5300    1.1900    0.0000 C   0  0  0  0  0  0  0  0  0  0  0  0
    3.6500   -0.0200    0.0000 C   0  0  0  0  0  0  0  0  0  0  0  0
    2.2200    0.4400    0.0000 C   0  0  1  0  0  0  0  0  0  0  0  0
  1  2  2  0  0  0  0
  2  3  1  0  0  0  0
  3  4  2  0  0  0  0
  4  5  1  0  0  0  0
  4  6  1  0  0  0  0
  6  7  2  0  0  0  0
  1  7  1  0  0  0  0
  7  8  1  0  0  0  0
  8  9  1  0  0  0  0
 10  9  1  6  0  0  0
 10 11  1  0  0  0  0
  1 11  1  0  0  0  0
 11 12  1  1  0  0  0
 12 13  1  0  0  0  0
 13 14  1  0  0  0  0
 14 15  1  1  0  0  0
 14 16  1  0  0  0  0
 16 17  2  0  0  0  0
 16 18  1  0  0  0  0
 18 19  1  0  0  0  0
 20 19  1  1  0  0  0
 10 20  1  0  0  0  0
 14 20  1  0  0  0  0
M  END
> <InChI>
InChI=1S/C18H22O2/c1-18-9-8-14-13-5-3-12(19)10-11(13)2-4-15(14)16(18)6-7-17(18)20/h3,5,10,14-16,19H,2,4,6-9H2,1H3/t14-,15-,16+,18+/m1/s1

> <InChIKey>
DNXHEGUUPJUMQT-CBZIJGRNSA-N

> <SMILES>
C12=CC=C(O)C=C1CC[C@@H]3[C@@H]2CC[C@]4(C)C(=O)CC[C@@H]34

> <Synonyms>


> <PUBCHEM_CID>


> <Molecular_formula>
C18H22O2

> <Major_Isotope_Mass>
270.161979944

> <ALogP>
3.7731999999999997

> <Lipinski_Violations>
0

> <Insecticide_Likeness_Violations>
0

> <Post_Em_Herbicide_Likeness_Violations>
0

> <Metabolite_ID>
BTM00003

> <Reaction>
Aromatization of androgen

> <Reaction_ID>
BTMR0397

> <Enzyme(s)>
EC 1.14.14.14

> <Biosystem>
HUMAN

> <Precursor_ID>


> <Precursor_SMILES>
C[C@]12CCC(=O)C=C1CC[C@@H]3[C@@H]2CC[C@]4(C)C(=O)CC[C@@H]34

> <Precursor_InChI>
InChI=1S/C19H26O2/c1-18-9-7-13(20)11-12(18)3-4-14-15-5-6-17(21)19(15,2)10-8-16(14)18/h11,14-16H,3-10H2,1-2H3/t14-,15-,16-,18-,19-/m0/s1

> <Precursor_InChIKey>
AEMFNILZOJDQLW-QAGGRKNESA-N

> <Precursor_ALogP>


> <Precursor_Major_Isotope_Mass>
286.1932

$$$$
BTM00004
  CDK     09122622082D

 22 25  0  0  1  0  0  0  0  0999 V2000
   -1.6800    1.1900    0.0000 C   0  0  0  0  0  0  0  0  0  0  0  0
   -1.6800   -0.3100    0.0000 C   0  0  2  0  0  0  0  0  0  0  0  0
   -2.9800    0.4400    0.0000 C   0  0  0  0  0  0  0  0  0  0  0  0
   -4.2800   -0.3100    0.0000 C   0  0  0  0  0  0  0  0  0  0  0  0
   -4.2800   -1.8100    0.0000 C   0  0  0  0  0  0  0  0  0  0  0  0
   -5.5789   -2.5602    0.0000 O   0  0  0  0  0  0  0  0  0  0  0  0
   -2.9800   -2.5600    0.0000 C   0  0  0  0  0  0  0  0  0  0  0  0
   -1.6800   -1.8100    0.0000 C   0  0  0  0  0  0  0  0  0  0  0  0
   -0.3800   -2.5600    0.0000 C   0  0  0  0  0  0  0  0  0  0  0  0
    0.9200   -1.8100    0.0000 C   0  0  0  0  0  0  0  0  0  0  0  0
    0.9200   -0.3100    0.0000 C   0  0  2  0  0  0  0  0  0  0  0  0
   -0.3800    0.4400    0.0000 C   0  0  2  0  0  0  0  0  0  0  0  0
   -0.3800    1.9400    0.0000 C   0  0  0  0  0  0  0  0  0  0  0  0
    0.9200    2.6900    0.0000 C   0  0  0  0  0  0  0  0  0  0  0  0
    2.2200    1.9400    0.0000 C   0  0  2  0  0  0  0  0  0  0  0  0
    2.3787    3.4316    0.0000 C   0  0  0  0  0  0  0  0  0  0  0  0
    3.6500    2.4000    0.0000 C   0  0  0  0  0  0  0  0  0  0  0  0
    4.1153    3.8260    0.0000 O   0  0  0  0  0  0  0  0  0  0  0  0
    4.5300    1.1900    0.0000 C   0  0  0  0  0  0  0  0  0  0  0  0
    3.6500   -0.0200    0.0000 C   0  0  0  0  0  0  0  0  0  0  0  0
    2.2200    0.4400    0.0000 C   0  0  1  0  0  0  0  0  0  0  0  0
    2.2189   -2.5602    0.0000 O   0  0  0  0  0  0  0  0  0  0  0  0
  2  1  1  1  0  0  0
  2  3  1  0  0  0  0
  3  4  1  0  0  0  0
  4  5  1  0  0  0  0
  5  6  2  0  0  0  0
  5  7  1  0  0  0  0
  7  8  2  0  0  0  0
  2  8  1  0  0  0  0
  8  9  1  0  0  0  0
  9 10  1  0  0  0  0
 11 10  1  6  0  0  0
 11 12  1  0  0  0  0
  2 12  1  0  0  0  0
 12 13  1  1  0  0  0
 13 14  1  0  0  0  0
 14 15  1  0  0  0  0
 15 16  1  1  0  0  0
 15 17  1  0  0  0  0
 17 18  2  0  0  0  0
 17 19  1  0  0  0  0
 19 20  1  0  0  0  0
 21 20  1  1  0  0  0
 11 21  1  0  0  0  0
 15 21  1  0  0  0  0
 22 10  1  0  0  0  0
M  END
> <InChI>
InChI=1S/C19H26O3/c1-18-7-5-12(20)9-11(18)10-15(21)17-13-3-4-16(22)19(13,2)8-6-14(17)18/h9,13-15,17,21H,3-8,10H2,1-2H3/t13-,14-,15?,17-,18-,19-/m0/s1

> <InChIKey>
LFWLQMQUJQUZBD-UOEDLQKQSA-N

> <SMILES>
C[C@]12CCC(=O)C=C1CC([C@@H]3[C@@H]2CC[C@]4(C)C(=O)CC[C@@H]34)O

> <Synonyms>


> <PUBCHEM_CID>


> <Molecular_formula>
C19H26O3

> <Major_Isotope_Mass>
302.18819469199997

> <ALogP>
2.124399999999999

> <Lipinski_Violations>
0

> <Insecticide_Likeness_Violations>
0

> <Post_Em_Herbicide_Likeness_Violations>
0

> <Metabolite_ID>
BTM00004

> <Reaction>
7-Hydroxylation of sterol

> <Reaction_ID>
BTMR1244

> <Enzyme(s)>
EC 1.14.14.29
EC 1.14.14.32

> <Biosystem>
HUMAN

> <Precursor_ID>


> <Precursor_SMILES>
C[C@]12CCC(=O)C=C1CC[C@@H]3[C@@H]2CC[C@]4(C)C(=O)CC[C@@H]34

> <Precursor_InChI>
InChI=1S/C19H26O2/c1-18-9-7-13(20)11-12(18)3-4-14-15-5-6-17(21)19(15,2)10-8-16(14)18/h11,14-16H,3-10H2,1-2H3/t14-,15-,16-,18-,19-/m0/s1

> <Precursor_InChIKey>
AEMFNILZOJDQLW-QAGGRKNESA-N

> <Precursor_ALogP>


> <Precursor_Major_Isotope_Mass>
286.1932

$$$$
BTM00005
  CDK     09122622082D

 22 25  0  0  1  0  0  0  0  0999 V2000
   -1.6800    1.1900    0.0000 C   0  0  0  0  0  0  0  0  0  0  0  0
   -1.6800   -0.3100    0.0000 C   0  0  2  0  0  0  0  0  0  0  0  0
   -2.9800    0.4400    0.0000 C   0  0  0  0  0  0  0  0  0  0  0  0
   -4.2800   -0.3100    0.0000 C   0  0  0  0  0  0  0  0  0  0  0  0
   -4.2800   -1.8100    0.0000 C   0  0  0  0  0  0  0  0  0  0  0  0
   -5.5789   -2.5602    0.0000 O   0  0  0  0  0  0  0  0  0  0  0  0
   -2.9800   -2.5600    0.0000 C   0  0  0  0  0  0  0  0  0  0  0  0
   -1.6800   -1.8100    0.0000 C   0  0  0  0  0  0  0  0  0  0  0  0
   -0.3800   -2.5600    0.0000 C   0  0  0  0  0  0  0  0  0  0  0  0
    0.9200   -1.8100    0.0000 C   0  0  0  0  0  0  0  0  0  0  0  0
    0.9200   -0.3100    0.0000 C   0  0  2  0  0  0  0  0  0  0  0  0
   -0.3800    0.4400    0.0000 C   0  0  2  0  0  0  0  0  0  0  0  0
   -0.3800    1.9400    0.0000 C   0  0  0  0  0  0  0  0  0  0  0  0
    0.9200    2.6900    0.0000 C   0  0  0  0  0  0  0  0  0  0  0  0
    2.2200    1.9400    0.0000 C   0  0  2  0  0  0  0  0  0  0  0  0
    2.3787    3.4316    0.0000 C   0  0  0  0  0  0  0  0  0  0  0  0
    3.6500    2.4000    0.0000 C   0  0  0  0  0  0  0  0  0  0  0  0
    4.1153    3.8260    0.0000 O   0  0  0  0  0  0  0  0  0  0  0  0
    4.5300    1.1900    0.0000 C   0  0  0  0  0  0  0  0  0  0  0  0
    3.6500   -0.0200    0.0000 C   0  0  0  0  0  0  0  0  0  0  0  0
    2.2200    0.4400    0.0000 C   0  0  1  0  0  0  0  0  0  0  0  0
   -1.6789    2.6902    0.0000 O   0  0  0  0  0  0  0  0  0  0  0  0
  2  1  1  1  0  0  0
  2  3  1  0  0  0  0
  3  4  1  0  0  0  0
  4  5  1  0  0  0  0
  5  6  2  0  0  0  0
  5  7  1  0  0  0  0
  7  8  2  0  0  0  0
  2  8  1  0  0  0  0
  8  9  1  0  0  0  0
  9 10  1  0  0  0  0
 11 10  1  6  0  0  0
 11 12  1  0  0  0  0
  2 12  1  0  0  0  0
 12 13  1  1  0  0  0
 13 14  1  0  0  0  0
 14 15  1  0  0  0  0
 15 16  1  1  0  0  0
 15 17  1  0  0  0  0
 17 18  2  0  0  0  0
 17 19  1  0  0  0  0
 19 20  1  0  0  0  0
 21 20  1  1  0  0  0
 11 21  1  0  0  0  0
 15 21  1  0  0  0  0
 22 13  1  0  0  0  0
M  END
> <InChI>
InChI=1S/C19H26O3/c1-18-8-7-12(20)9-11(18)3-4-13-14-5-6-16(22)19(14,2)10-15(21)17(13)18/h9,13-15,17,21H,3-8,10H2,1-2H3/t13-,14-,15?,17+,18-,19-/m0/s1

> <InChIKey>
WSCUHXPGYUMQEX-CRIVMUBDSA-N

> <SMILES>
C[C@]12CCC(=O)C=C1CC[C@@H]3[C@@H]2C(C[C@]4(C)C(=O)CC[C@@H]34)O

> <Synonyms>


> <PUBCHEM_CID>


> <Molecular_formula>
C19H26O3

> <Major_Isotope_Mass>
302.18819469199997

> <ALogP>
2.124399999999999

> <Lipinski_Violations>
0

> <Insecticide_Likeness_Violations>
0

> <Post_Em_Herbicide_Likeness_Violations>
0

> <Metabolite_ID>
BTM00005

> <Reaction>
11-beta-Hydroxylation of sterol

> <Reaction_ID>
BTMR0406

> <Enzyme(s)>
EC 1.14.15.4

> <Biosystem>
HUMAN

> <Precursor_ID>


> <Precursor_SMILES>
C[C@]12CCC(=O)C=C1CC[C@@H]3[C@@H]2CC[C@]4(C)C(=O)CC[C@@H]34

> <Precursor_InChI>
InChI=1S/C19H26O2/c1-18-9-7-13(20)11-12(18)3-4-14-15-5-6-17(21)19(15,2)10-8-16(14)18/h11,14-16H,3-10H2,1-2H3/t14-,15-,16-,18-,19-/m0/s1

> <Precursor_InChIKey>
AEMFNILZOJDQLW-QAGGRKNESA-N

> <Precursor_ALogP>


> <Precursor_Major_Isotope_Mass>
286.1932

$$$$
BTM00006
  CDK     09122622082D

 22 25  0  0  1  0  0  0  0  0999 V2000
   -1.9175    0.9000    0.0000 C   0  0  0  0  0  0  0  0  0  0  0  0
   -1.9200   -0.6000    0.0000 C   0  0  2  0  0  0  0  0  0  0  0  0
   -3.2100    0.1200    0.0000 C   0  0  0  0  0  0  0  0  0  0  0  0
   -4.5200   -0.6000    0.0000 C   0  0  0  0  0  0  0  0  0  0  0  0
   -4.5200   -2.1200    0.0000 C   0  0  0  0  0  0  0  0  0  0  0  0
   -5.8177   -2.8724    0.0000 O   0  0  0  0  0  0  0  0  0  0  0  0
   -3.2100   -2.8700    0.0000 C   0  0  0  0  0  0  0  0  0  0  0  0
   -1.9200   -2.1200    0.0000 C   0  0  0  0  0  0  0  0  0  0  0  0
   -0.6200   -2.8700    0.0000 C   0  0  0  0  0  0  0  0  0  0  0  0
    0.7100   -2.1200    0.0000 C   0  0  0  0  0  0  0  0  0  0  0  0
    0.7100   -0.6000    0.0000 C   0  0  2  0  0  0  0  0  0  0  0  0
   -0.6200    0.1200    0.0000 C   0  0  2  0  0  0  0  0  0  0  0  0
   -0.6200    1.5900    0.0000 C   0  0  0  0  0  0  0  0  0  0  0  0
    0.7100    2.3500    0.0000 C   0  0  0  0  0  0  0  0  0  0  0  0
    1.9800    1.5900    0.0000 C   0  0  2  0  0  0  0  0  0  0  0  0
    2.1507    3.0803    0.0000 C   0  0  0  0  0  0  0  0  0  0  0  0
    3.4100    2.0500    0.0000 C   0  0  0  0  0  0  0  0  0  0  0  0
    3.8870    3.4721    0.0000 O   0  0  0  0  0  0  0  0  0  0  0  0
    4.2600    0.8400    0.0000 C   0  0  0  0  0  0  0  0  0  0  0  0
    3.4100   -0.3500    0.0000 C   0  0  0  0  0  0  0  0  0  0  0  0
    1.9800    0.1200    0.0000 C   0  0  1  0  0  0  0  0  0  0  0  0
    5.7600    0.8341    0.0000 O   0  0  0  0  0  0  0  0  0  0  0  0
  2  1  1  1  0  0  0
  2  3  1  0  0  0  0
  3  4  1  0  0  0  0
  4  5  1  0  0  0  0
  5  6  2  0  0  0  0
  5  7  1  0  0  0  0
  7  8  2  0  0  0  0
  2  8  1  0  0  0  0
  8  9  1  0  0  0  0
  9 10  1  0  0  0  0
 11 10  1  6  0  0  0
 11 12  1  0  0  0  0
  2 12  1  0  0  0  0
 12 13  1  1  0  0  0
 13 14  1  0  0  0  0
 14 15  1  0  0  0  0
 15 16  1  1  0  0  0
 15 17  1  0  0  0  0
 17 18  2  0  0  0  0
 17 19  1  0  0  0  0
 19 20  1  0  0  0  0
 21 20  1  1  0  0  0
 11 21  1  0  0  0  0
 15 21  1  0  0  0  0
 22 19  1  0  0  0  0
M  END
> <InChI>
InChI=1S/C19H26O3/c1-18-7-5-12(20)9-11(18)3-4-13-14(18)6-8-19(2)15(13)10-16(21)17(19)22/h9,13-16,21H,3-8,10H2,1-2H3/t13-,14+,15+,16?,18+,19+/m1/s1

> <InChIKey>
SSBCZTXGVMMZOT-DTCRIMCDSA-N

> <SMILES>
C[C@]12CCC(=O)C=C1CC[C@@H]3[C@@H]2CC[C@]4(C)C(=O)C(C[C@@H]34)O

> <Synonyms>


> <PUBCHEM_CID>


> <Molecular_formula>
C19H26O3

> <Major_Isotope_Mass>
302.188194692

> <ALogP>
2.6132999999999984

> <Lipinski_Violations>
0

> <Insecticide_Likeness_Violations>
0

> <Post_Em_Herbicide_Likeness_Violations>
0

> <Metabolite_ID>
BTM00006

> <Reaction>
16-Hydroxylation of sterol

> <Reaction_ID>
BTMR0407

> <Enzyme(s)>
CYP1A2
CYP2A6
CYP2B6
CYP2C8
CYP2C9
CYP2C19
CYP2D6
CYP2E1
CYP3A4

> <Biosystem>
HUMAN

> <Precursor_ID>


> <Precursor_SMILES>
C[C@]12CCC(=O)C=C1CC[C@@H]3[C@@H]2CC[C@]4(C)C(=O)CC[C@@H]34

> <Precursor_InChI>
InChI=1S/C19H26O2/c1-18-9-7-13(20)11-12(18)3-4-14-15-5-6-17(21)19(15,2)10-8-16(14)18/h11,14-16H,3-10H2,1-2H3/t14-,15-,16-,18-,19-/m0/s1

> <Precursor_InChIKey>
AEMFNILZOJDQLW-QAGGRKNESA-N

> <Precursor_ALogP>


> <Precursor_Major_Isotope_Mass>
286.1932

$$$$
BTM00007
  CDK     09122622082D

 22 25  0  0  1  0  0  0  0  0999 V2000
   -1.6800    1.1900    0.0000 C   0  0  0  0  0  0  0  0  0  0  0  0
   -1.6800   -0.3100    0.0000 C   0  0  2  0  0  0  0  0  0  0  0  0
   -2.9800    0.4400    0.0000 C   0  0  0  0  0  0  0  0  0  0  0  0
   -4.2800   -0.3100    0.0000 C   0  0  0  0  0  0  0  0  0  0  0  0
   -4.2800   -1.8100    0.0000 C   0  0  0  0  0  0  0  0  0  0  0  0
   -5.5789   -2.5602    0.0000 O   0  0  0  0  0  0  0  0  0  0  0  0
   -2.9800   -2.5600    0.0000 C   0  0  0  0  0  0  0  0  0  0  0  0
   -1.6800   -1.8100    0.0000 C   0  0  0  0  0  0  0  0  0  0  0  0
   -0.3800   -2.5600    0.0000 C   0  0  0  0  0  0  0  0  0  0  0  0
    0.9200   -1.8100    0.0000 C   0  0  0  0  0  0  0  0  0  0  0  0
    0.9200   -0.3100    0.0000 C   0  0  2  0  0  0  0  0  0  0  0  0
   -0.3800    0.4400    0.0000 C   0  0  2  0  0  0  0  0  0  0  0  0
   -0.3800    1.9400    0.0000 C   0  0  0  0  0  0  0  0  0  0  0  0
    0.9200    2.6900    0.0000 C   0  0  0  0  0  0  0  0  0  0  0  0
    2.2200    1.9400    0.0000 C   0  0  2  0  0  0  0  0  0  0  0  0
    2.3787    3.4316    0.0000 C   0  0  0  0  0  0  0  0  0  0  0  0
    3.6500    2.4000    0.0000 C   0  0  0  0  0  0  0  0  0  0  0  0
    4.1153    3.8260    0.0000 O   0  0  0  0  0  0  0  0  0  0  0  0
    4.5300    1.1900    0.0000 C   0  0  0  0  0  0  0  0  0  0  0  0
    3.6500   -0.0200    0.0000 C   0  0  0  0  0  0  0  0  0  0  0  0
    2.2200    0.4400    0.0000 C   0  0  1  0  0  0  0  0  0  0  0  0
   -5.5789    0.4402    0.0000 O   0  0  0  0  0  0  0  0  0  0  0  0
  2  1  1  1  0  0  0
  2  3  1  0  0  0  0
  3  4  1  0  0  0  0
  4  5  1  0  0  0  0
  5  6  2  0  0  0  0
  5  7  1  0  0  0  0
  7  8  2  0  0  0  0
  2  8  1  0  0  0  0
  8  9  1  0  0  0  0
  9 10  1  0  0  0  0
 11 10  1  6  0  0  0
 11 12  1  0  0  0  0
  2 12  1  0  0  0  0
 12 13  1  1  0  0  0
 13 14  1  0  0  0  0
 14 15  1  0  0  0  0
 15 16  1  1  0  0  0
 15 17  1  0  0  0  0
 17 18  2  0  0  0  0
 17 19  1  0  0  0  0
 19 20  1  0  0  0  0
 21 20  1  1  0  0  0
 11 21  1  0  0  0  0
 15 21  1  0  0  0  0
 22  4  1  0  0  0  0
M  END
> <InChI>
InChI=1S/C19H26O3/c1-18-8-7-14-12(13(18)5-6-17(18)22)4-3-11-9-15(20)16(21)10-19(11,14)2/h9,12-14,16,21H,3-8,10H2,1-2H3/t12-,13-,14-,16?,18-,19-/m0/s1

> <InChIKey>
TUUUEQXMRRIGLT-KHBKHOKVSA-N

> <SMILES>
C[C@]12CC(C(=O)C=C1CC[C@@H]3[C@@H]2CC[C@]4(C)C(=O)CC[C@@H]34)O

> <Synonyms>


> <PUBCHEM_CID>


> <Molecular_formula>
C19H26O3

> <Major_Isotope_Mass>
302.188194692

> <ALogP>
2.6132999999999984

> <Lipinski_Violations>
0

> <Insecticide_Likeness_Violations>
0

> <Post_Em_Herbicide_Likeness_Violations>
0

> <Metabolite_ID>
BTM00007

> <Reaction>
2-Hydroxylation of sterol

> <Reaction_ID>
BTMR0398

> <Enzyme(s)>
CYP1A2
CYP2C19
CYP3A4

> <Biosystem>
HUMAN

> <Precursor_ID>


> <Precursor_SMILES>
C[C@]12CCC(=O)C=C1CC[C@@H]3[C@@H]2CC[C@]4(C)C(=O)CC[C@@H]34

> <Precursor_InChI>
InChI=1S/C19H26O2/c1-18-9-7-13(20)11-12(18)3-4-14-15-5-6-17(21)19(15,2)10-8-16(14)18/h11,14-16H,3-10H2,1-2H3/t14-,15-,16-,18-,19-/m0/s1

> <Precursor_InChIKey>
AEMFNILZOJDQLW-QAGGRKNESA-N

> <Precursor_ALogP>


> <Precursor_Major_Isotope_Mass>
286.1932

$$$$
BTM00008
  CDK     09122622082D

 22 25  0  0  1  0  0  0  0  0999 V2000
   -1.6800    1.1900    0.0000 C   0  0  0  0  0  0  0  0  0  0  0  0
   -1.6800   -0.3100    0.0000 C   0  0  2  0  0  0  0  0  0  0  0  0
   -2.9800    0.4400    0.0000 C   0  0  0  0  0  0  0  0  0  0  0  0
   -4.2800   -0.3100    0.0000 C   0  0  0  0  0  0  0  0  0  0  0  0
   -4.2800   -1.8100    0.0000 C   0  0  0  0  0  0  0  0  0  0  0  0
   -5.5789   -2.5602    0.0000 O   0  0  0  0  0  0  0  0  0  0  0  0
   -2.9800   -2.5600    0.0000 C   0  0  0  0  0  0  0  0  0  0  0  0
   -1.6800   -1.8100    0.0000 C   0  0  0  0  0  0  0  0  0  0  0  0
   -0.3800   -2.5600    0.0000 C   0  0  0  0  0  0  0  0  0  0  0  0
    0.9200   -1.8100    0.0000 C   0  0  0  0  0  0  0  0  0  0  0  0
    0.9200   -0.3100    0.0000 C   0  0  2  0  0  0  0  0  0  0  0  0
   -0.3800    0.4400    0.0000 C   0  0  2  0  0  0  0  0  0  0  0  0
   -0.3800    1.9400    0.0000 C   0  0  0  0  0  0  0  0  0  0  0  0
    0.9200    2.6900    0.0000 C   0  0  0  0  0  0  0  0  0  0  0  0
    2.2200    1.9400    0.0000 C   0  0  2  0  0  0  0  0  0  0  0  0
    2.3787    3.4316    0.0000 C   0  0  0  0  0  0  0  0  0  0  0  0
    3.6500    2.4000    0.0000 C   0  0  0  0  0  0  0  0  0  0  0  0
    4.1153    3.8260    0.0000 O   0  0  0  0  0  0  0  0  0  0  0  0
    4.5300    1.1900    0.0000 C   0  0  0  0  0  0  0  0  0  0  0  0
    3.6500   -0.0200    0.0000 C   0  0  0  0  0  0  0  0  0  0  0  0
    2.2200    0.4400    0.0000 C   0  0  1  0  0  0  0  0  0  0  0  0
   -2.9800   -4.0600    0.0000 O   0  0  0  0  0  0  0  0  0  0  0  0
  2  1  1  1  0  0  0
  2  3  1  0  0  0  0
  3  4  1  0  0  0  0
  4  5  1  0  0  0  0
  5  6  2  0  0  0  0
  5  7  1  0  0  0  0
  7  8  2  0  0  0  0
  2  8  1  0  0  0  0
  8  9  1  0  0  0  0
  9 10  1  0  0  0  0
 11 10  1  6  0  0  0
 11 12  1  0  0  0  0
  2 12  1  0  0  0  0
 12 13  1  1  0  0  0
 13 14  1  0  0  0  0
 14 15  1  0  0  0  0
 15 16  1  1  0  0  0
 15 17  1  0  0  0  0
 17 18  2  0  0  0  0
 17 19  1  0  0  0  0
 19 20  1  0  0  0  0
 21 20  1  1  0  0  0
 11 21  1  0  0  0  0
 15 21  1  0  0  0  0
 22  7  1  0  0  0  0
M  END
> <InChI>
InChI=1S/C19H26O3/c1-18-10-8-15(20)17(22)14(18)4-3-11-12-5-6-16(21)19(12,2)9-7-13(11)18/h11-13,22H,3-10H2,1-2H3/t11-,12-,13-,18+,19-/m0/s1

> <InChIKey>
OSVMTWJCGUFAOD-KZQROQTASA-N

> <SMILES>
C[C@]12CCC(=O)C(=C1CC[C@@H]3[C@@H]2CC[C@]4(C)C(=O)CC[C@@H]34)O

> <Synonyms>


> <PUBCHEM_CID>


> <Molecular_formula>
C19H26O3

> <Major_Isotope_Mass>
302.18819469199997

> <ALogP>
2.7307

> <Lipinski_Violations>
0

> <Insecticide_Likeness_Violations>
0

> <Post_Em_Herbicide_Likeness_Violations>
0

> <Metabolite_ID>
BTM00008

> <Reaction>
4-Hydroxylation of sterol

> <Reaction_ID>
BTMR0400

> <Enzyme(s)>
CYP1A2
CYP3A4

> <Biosystem>
HUMAN

> <Precursor_ID>


> <Precursor_SMILES>
C[C@]12CCC(=O)C=C1CC[C@@H]3[C@@H]2CC[C@]4(C)C(=O)CC[C@@H]34

> <Precursor_InChI>
InChI=1S/C19H26O2/c1-18-9-7-13(20)11-12(18)3-4-14-15-5-6-17(21)19(15,2)10-8-16(14)18/h11,14-16H,3-10H2,1-2H3/t14-,15-,16-,18-,19-/m0/s1

> <Precursor_InChIKey>
AEMFNILZOJDQLW-QAGGRKNESA-N

> <Precursor_ALogP>


> <Precursor_Major_Isotope_Mass>
286.1932

$$$$
BTM00009
  CDK     09122622082D

 22 25  0  0  1  0  0  0  0  0999 V2000
   -1.6800    1.1900    0.0000 C   0  0  0  0  0  0  0  0  0  0  0  0
   -1.6800   -0.3100    0.0000 C   0  0  2  0  0  0  0  0  0  0  0  0
   -2.9800    0.4400    0.0000 C   0  0  0  0  0  0  0  0  0  0  0  0
   -4.2800   -0.3100    0.0000 C   0  0  0  0  0  0  0  0  0  0  0  0
   -4.2800   -1.8100    0.0000 C   0  0  0  0  0  0  0  0  0  0  0  0
   -5.5789   -2.5602    0.0000 O   0  0  0  0  0  0  0  0  0  0  0  0
   -2.9800   -2.5600    0.0000 C   0  0  0  0  0  0  0  0  0  0  0  0
   -1.6800   -1.8100    0.0000 C   0  0  0  0  0  0  0  0  0  0  0  0
   -0.3800   -2.5600    0.0000 C   0  0  0  0  0  0  0  0  0  0  0  0
    0.9200   -1.8100    0.0000 C   0  0  0  0  0  0  0  0  0  0  0  0
    0.9200   -0.3100    0.0000 C   0  0  2  0  0  0  0  0  0  0  0  0
   -0.3800    0.4400    0.0000 C   0  0  2  0  0  0  0  0  0  0  0  0
   -0.3800    1.9400    0.0000 C   0  0  0  0  0  0  0  0  0  0  0  0
    0.9200    2.6900    0.0000 C   0  0  0  0  0  0  0  0  0  0  0  0
    2.2200    1.9400    0.0000 C   0  0  2  0  0  0  0  0  0  0  0  0
    2.3787    3.4316    0.0000 C   0  0  0  0  0  0  0  0  0  0  0  0
    3.6500    2.4000    0.0000 C   0  0  0  0  0  0  0  0  0  0  0  0
    4.1153    3.8260    0.0000 O   0  0  0  0  0  0  0  0  0  0  0  0
    4.5300    1.1900    0.0000 C   0  0  0  0  0  0  0  0  0  0  0  0
    3.6500   -0.0200    0.0000 C   0  0  0  0  0  0  0  0  0  0  0  0
    2.2200    0.4400    0.0000 C   0  0  1  0  0  0  0  0  0  0  0  0
   -0.3800   -4.0600    0.0000 O   0  0  0  0  0  0  0  0  0  0  0  0
  2  1  1  1  0  0  0
  2  3  1  0  0  0  0
  3  4  1  0  0  0  0
  4  5  1  0  0  0  0
  5  6  2  0  0  0  0
  5  7  1  0  0  0  0
  7  8  2  0  0  0  0
  2  8  1  0  0  0  0
  8  9  1  0  0  0  0
  9 10  1  0  0  0  0
 11 10  1  6  0  0  0
 11 12  1  0  0  0  0
  2 12  1  0  0  0  0
 12 13  1  1  0  0  0
 13 14  1  0  0  0  0
 14 15  1  0  0  0  0
 15 16  1  1  0  0  0
 15 17  1  0  0  0  0
 17 18  2  0  0  0  0
 17 19  1  0  0  0  0
 19 20  1  0  0  0  0
 21 20  1  1  0  0  0
 11 21  1  0  0  0  0
 15 21  1  0  0  0  0
 22  9  1  0  0  0  0
M  END
> <InChI>
InChI=1S/C19H26O3/c1-18-7-5-11(20)9-15(18)16(21)10-12-13-3-4-17(22)19(13,2)8-6-14(12)18/h9,12-14,16,21H,3-8,10H2,1-2H3/t12-,13-,14-,16?,18+,19-/m0/s1

> <InChIKey>
WVAMBAWFDOYFOD-WFJVDCJUSA-N

> <SMILES>
C[C@]12CCC(=O)C=C1C(C[C@@H]3[C@@H]2CC[C@]4(C)C(=O)CC[C@@H]34)O

> <Synonyms>


> <PUBCHEM_CID>


> <Molecular_formula>
C19H26O3

> <Major_Isotope_Mass>
302.188194692

> <ALogP>
2.191899999999999

> <Lipinski_Violations>
0

> <Insecticide_Likeness_Violations>
0

> <Post_Em_Herbicide_Likeness_Violations>
0

> <Metabolite_ID>
BTM00009

> <Reaction>
6-Hydroxylation of sterol

> <Reaction_ID>
BTMR0402

> <Enzyme(s)>
CYP2A6
CYP2B6
CYP2C8
CYP2C9
CYP2C19
CYP2D6
CYP3A4

> <Biosystem>
HUMAN

> <Precursor_ID>


> <Precursor_SMILES>
C[C@]12CCC(=O)C=C1CC[C@@H]3[C@@H]2CC[C@]4(C)C(=O)CC[C@@H]34

> <Precursor_InChI>
InChI=1S/C19H26O2/c1-18-9-7-13(20)11-12(18)3-4-14-15-5-6-17(21)19(15,2)10-8-16(14)18/h11,14-16H,3-10H2,1-2H3/t14-,15-,16-,18-,19-/m0/s1

> <Precursor_InChIKey>
AEMFNILZOJDQLW-QAGGRKNESA-N

> <Precursor_ALogP>


> <Precursor_Major_Isotope_Mass>
286.1932

$$$$
BTM00010
  CDK     09122622082D

 22 25  0  0  1  0  0  0  0  0999 V2000
   -1.6300    0.9100    0.0000 C   0  0  0  0  0  0  0  0  0  0  0  0
   -1.6300   -0.5900    0.0000 C   0  0  2  0  0  0  0  0  0  0  0  0
   -2.9300    0.1600    0.0000 C   0  0  0  0  0  0  0  0  0  0  0  0
   -4.2300   -0.5900    0.0000 C   0  0  0  0  0  0  0  0  0  0  0  0
   -4.2300   -2.0900    0.0000 C   0  0  0  0  0  0  0  0  0  0  0  0
   -5.5289   -2.8402    0.0000 O   0  0  0  0  0  0  0  0  0  0  0  0
   -2.9300   -2.8400    0.0000 C   0  0  0  0  0  0  0  0  0  0  0  0
   -1.6300   -2.0900    0.0000 C   0  0  0  0  0  0  0  0  0  0  0  0
   -0.3300   -2.8400    0.0000 C   0  0  0  0  0  0  0  0  0  0  0  0
    0.9700   -2.0900    0.0000 C   0  0  0  0  0  0  0  0  0  0  0  0
    0.9700   -0.5900    0.0000 C   0  0  2  0  0  0  0  0  0  0  0  0
   -0.3300    0.1600    0.0000 C   0  0  2  0  0  0  0  0  0  0  0  0
   -0.3300    1.6600    0.0000 C   0  0  0  0  0  0  0  0  0  0  0  0
    0.9700    2.4100    0.0000 C   0  0  0  0  0  0  0  0  0  0  0  0
    2.2700    1.6600    0.0000 C   0  0  2  0  0  0  0  0  0  0  0  0
    2.4272    3.1517    0.0000 C   0  0  0  0  0  0  0  0  0  0  0  0
    3.6900    2.1200    0.0000 C   0  0  0  0  0  0  0  0  0  0  0  0
    4.1538    3.5465    0.0000 O   0  0  0  0  0  0  0  0  0  0  0  0
    4.5700    0.9100    0.0000 C   0  0  0  0  0  0  0  0  0  0  0  0
    3.6900   -0.3000    0.0000 C   0  0  0  0  0  0  0  0  0  0  0  0
    2.2700    0.1600    0.0000 C   0  0  1  0  0  0  0  0  0  0  0  0
   -2.9290    1.6600    0.0000 O   0  0  0  0  0  0  0  0  0  0  0  0
  2  1  1  1  0  0  0
  2  3  1  0  0  0  0
  3  4  1  0  0  0  0
  4  5  1  0  0  0  0
  5  6  2  0  0  0  0
  5  7  1  0  0  0  0
  7  8  2  0  0  0  0
  2  8  1  0  0  0  0
  8  9  1  0  0  0  0
  9 10  1  0  0  0  0
 11 10  1  6  0  0  0
 11 12  1  0  0  0  0
  2 12  1  0  0  0  0
 12 13  1  1  0  0  0
 13 14  1  0  0  0  0
 14 15  1  0  0  0  0
 15 16  1  1  0  0  0
 15 17  1  0  0  0  0
 17 18  2  0  0  0  0
 17 19  1  0  0  0  0
 19 20  1  0  0  0  0
 21 20  1  1  0  0  0
 11 21  1  0  0  0  0
 15 21  1  0  0  0  0
 22  1  1  0  0  0  0
M  END
> <InChI>
InChI=1S/C19H26O3/c1-18-8-7-16-14(15(18)4-5-17(18)22)3-2-12-10-13(21)6-9-19(12,16)11-20/h10,14-16,20H,2-9,11H2,1H3/t14-,15-,16-,18-,19+/m0/s1

> <InChIKey>
XGUHPTGEXRHMQQ-BGJMDTOESA-N

> <SMILES>
C([C@]12CCC(=O)C=C1CC[C@@H]3[C@@H]2CC[C@]4(C)C(=O)CC[C@@H]34)O

> <Synonyms>


> <PUBCHEM_CID>


> <Molecular_formula>
C19H26O3

> <Major_Isotope_Mass>
302.188194692

> <ALogP>
2.2030999999999983

> <Lipinski_Violations>
0

> <Insecticide_Likeness_Violations>
0

> <Post_Em_Herbicide_Likeness_Violations>
0

> <Metabolite_ID>
BTM00010

> <Reaction>
Hydroxylation of methyl carbon adjacent to aliphatic ring

> <Reaction_ID>
BTMR0054

> <Enzyme(s)>
CYP2B6
CYP2C8
CYP2C9
CYP2C19
CYP2D6
CYP3A4

> <Biosystem>
HUMAN

> <Precursor_ID>


> <Precursor_SMILES>
C[C@]12CCC(=O)C=C1CC[C@@H]3[C@@H]2CC[C@]4(C)C(=O)CC[C@@H]34

> <Precursor_InChI>
InChI=1S/C19H26O2/c1-18-9-7-13(20)11-12(18)3-4-14-15-5-6-17(21)19(15,2)10-8-16(14)18/h11,14-16H,3-10H2,1-2H3/t14-,15-,16-,18-,19-/m0/s1

> <Precursor_InChIKey>
AEMFNILZOJDQLW-QAGGRKNESA-N

> <Precursor_ALogP>


> <Precursor_Major_Isotope_Mass>
286.1932

$$$$
BTM00011
  CDK     09122622082D

 22 25  0  0  1  0  0  0  0  0999 V2000
   -1.6300    0.9100    0.0000 C   0  0  0  0  0  0  0  0  0  0  0  0
   -1.6300   -0.5900    0.0000 C   0  0  2  0  0  0  0  0  0  0  0  0
   -2.9300    0.1600    0.0000 C   0  0  0  0  0  0  0  0  0  0  0  0
   -4.2300   -0.5900    0.0000 C   0  0  0  0  0  0  0  0  0  0  0  0
   -4.2300   -2.0900    0.0000 C   0  0  0  0  0  0  0  0  0  0  0  0
   -5.5289   -2.8402    0.0000 O   0  0  0  0  0  0  0  0  0  0  0  0
   -2.9300   -2.8400    0.0000 C   0  0  0  0  0  0  0  0  0  0  0  0
   -1.6300   -2.0900    0.0000 C   0  0  0  0  0  0  0  0  0  0  0  0
   -0.3300   -2.8400    0.0000 C   0  0  0  0  0  0  0  0  0  0  0  0
    0.9700   -2.0900    0.0000 C   0  0  0  0  0  0  0  0  0  0  0  0
    0.9700   -0.5900    0.0000 C   0  0  2  0  0  0  0  0  0  0  0  0
   -0.3300    0.1600    0.0000 C   0  0  2  0  0  0  0  0  0  0  0  0
   -0.3300    1.6600    0.0000 C   0  0  0  0  0  0  0  0  0  0  0  0
    0.9700    2.4100    0.0000 C   0  0  0  0  0  0  0  0  0  0  0  0
    2.2700    1.6600    0.0000 C   0  0  2  0  0  0  0  0  0  0  0  0
    2.4272    3.1517    0.0000 C   0  0  0  0  0  0  0  0  0  0  0  0
    3.6900    2.1200    0.0000 C   0  0  0  0  0  0  0  0  0  0  0  0
    4.1538    3.5465    0.0000 O   0  0  0  0  0  0  0  0  0  0  0  0
    4.5700    0.9100    0.0000 C   0  0  0  0  0  0  0  0  0  0  0  0
    3.6900   -0.3000    0.0000 C   0  0  0  0  0  0  0  0  0  0  0  0
    2.2700    0.1600    0.0000 C   0  0  1  0  0  0  0  0  0  0  0  0
    1.2139    4.0338    0.0000 O   0  0  0  0  0  0  0  0  0  0  0  0
  2  1  1  1  0  0  0
  2  3  1  0  0  0  0
  3  4  1  0  0  0  0
  4  5  1  0  0  0  0
  5  6  2  0  0  0  0
  5  7  1  0  0  0  0
  7  8  2  0  0  0  0
  2  8  1  0  0  0  0
  8  9  1  0  0  0  0
  9 10  1  0  0  0  0
 11 10  1  6  0  0  0
 11 12  1  0  0  0  0
  2 12  1  0  0  0  0
 12 13  1  1  0  0  0
 13 14  1  0  0  0  0
 14 15  1  0  0  0  0
 15 16  1  1  0  0  0
 15 17  1  0  0  0  0
 17 18  2  0  0  0  0
 17 19  1  0  0  0  0
 19 20  1  0  0  0  0
 21 20  1  1  0  0  0
 11 21  1  0  0  0  0
 15 21  1  0  0  0  0
 22 16  1  0  0  0  0
M  END
> <InChI>
InChI=1S/C19H26O3/c1-18-8-6-13(21)10-12(18)2-3-14-15(18)7-9-19(11-20)16(14)4-5-17(19)22/h10,14-16,20H,2-9,11H2,1H3/t14-,15+,16+,18+,19-/m1/s1

> <InChIKey>
ZZHNYTLKRMBVAI-NLPXPOPTSA-N

> <SMILES>
C[C@]12CCC(=O)C=C1CC[C@@H]3[C@@H]2CC[C@]4(CO)C(=O)CC[C@@H]34

> <Synonyms>


> <PUBCHEM_CID>


> <Molecular_formula>
C19H26O3

> <Major_Isotope_Mass>
302.188194692

> <ALogP>
2.2030999999999983

> <Lipinski_Violations>
0

> <Insecticide_Likeness_Violations>
0

> <Post_Em_Herbicide_Likeness_Violations>
0

> <Metabolite_ID>
BTM00011

> <Reaction>
Hydroxylation of methyl carbon adjacent to aliphatic ring

> <Reaction_ID>
BTMR0054

> <Enzyme(s)>
CYP2B6
CYP2C8
CYP2C9
CYP2C19
CYP2D6
CYP3A4

> <Biosystem>
HUMAN

> <Precursor_ID>


> <Precursor_SMILES>
C[C@]12CCC(=O)C=C1CC[C@@H]3[C@@H]2CC[C@]4(C)C(=O)CC[C@@H]34

> <Precursor_InChI>
InChI=1S/C19H26O2/c1-18-9-7-13(20)11-12(18)3-4-14-15-5-6-17(21)19(15,2)10-8-16(14)18/h11,14-16H,3-10H2,1-2H3/t14-,15-,16-,18-,19-/m0/s1

> <Precursor_InChIKey>
AEMFNILZOJDQLW-QAGGRKNESA-N

> <Precursor_ALogP>


> <Precursor_Major_Isotope_Mass>
286.1932

$$$$
BTM00012
  CDK     09122622082D

 21 24  0  0  1  0  0  0  0  0999 V2000
   -1.6800    1.1900    0.0000 C   0  0  0  0  0  0  0  0  0  0  0  0
   -1.6800   -0.3100    0.0000 C   0  0  2  0  0  0  0  0  0  0  0  0
   -2.9800    0.4400    0.0000 C   0  0  0  0  0  0  0  0  0  0  0  0
   -4.2800   -0.3100    0.0000 C   0  0  0  0  0  0  0  0  0  0  0  0
   -4.2800   -1.8100    0.0000 C   0  0  0  0  0  0  0  0  0  0  0  0
   -5.5789   -2.5602    0.0000 O   0  0  0  0  0  0  0  0  0  0  0  0
   -2.9800   -2.5600    0.0000 C   0  0  0  0  0  0  0  0  0  0  0  0
   -1.6800   -1.8100    0.0000 C   0  0  0  0  0  0  0  0  0  0  0  0
   -0.3800   -2.5600    0.0000 C   0  0  0  0  0  0  0  0  0  0  0  0
    0.9200   -1.8100    0.0000 C   0  0  0  0  0  0  0  0  0  0  0  0
    0.9200   -0.3100    0.0000 C   0  0  2  0  0  0  0  0  0  0  0  0
   -0.3800    0.4400    0.0000 C   0  0  2  0  0  0  0  0  0  0  0  0
   -0.3800    1.9400    0.0000 C   0  0  0  0  0  0  0  0  0  0  0  0
    0.9200    2.6900    0.0000 C   0  0  0  0  0  0  0  0  0  0  0  0
    2.2200    1.9400    0.0000 C   0  0  2  0  0  0  0  0  0  0  0  0
    2.3787    3.4316    0.0000 C   0  0  0  0  0  0  0  0  0  0  0  0
    3.6500    2.4000    0.0000 C   0  0  0  0  0  0  0  0  0  0  0  0
    4.1153    3.8260    0.0000 O   0  0  0  0  0  0  0  0  0  0  0  0
    4.5300    1.1900    0.0000 C   0  0  0  0  0  0  0  0  0  0  0  0
    3.6500   -0.0200    0.0000 C   0  0  0  0  0  0  0  0  0  0  0  0
    2.2200    0.4400    0.0000 C   0  0  1  0  0  0  0  0  0  0  0  0
  2  1  1  1  0  0  0
  2  3  1  0  0  0  0
  3  4  1  0  0  0  0
  4  5  1  0  0  0  0
  5  6  2  0  0  0  0
  5  7  1  0  0  0  0
  7  8  2  0  0  0  0
  2  8  1  0  0  0  0
  8  9  1  0  0  0  0
  9 10  1  0  0  0  0
 11 10  1  6  0  0  0
 11 12  1  0  0  0  0
  2 12  1  0  0  0  0
 12 13  1  1  0  0  0
 13 14  1  0  0  0  0
 14 15  1  0  0  0  0
 15 16  1  1  0  0  0
 15 17  1  0  0  0  0
 17 18  1  0  0  0  0
 17 19  1  0  0  0  0
 19 20  1  0  0  0  0
 21 20  1  1  0  0  0
 11 21  1  0  0  0  0
 15 21  1  0  0  0  0
M  END
> <InChI>
InChI=1S/C19H28O2/c1-18-9-7-13(20)11-12(18)3-4-14-15-5-6-17(21)19(15,2)10-8-16(14)18/h11,14-17,21H,3-10H2,1-2H3/t14-,15-,16-,17?,18-,19-/m0/s1

> <InChIKey>
MUMGGOZAMZWBJJ-XZIMXZIZSA-N

> <SMILES>
C[C@]12CCC(=O)C=C1CC[C@@H]3[C@@H]2CC[C@]4(C)C(O)CC[C@@H]34

> <Synonyms>


> <PUBCHEM_CID>


> <Molecular_formula>
C19H28O2

> <Major_Isotope_Mass>
288.208930136

> <ALogP>
3.3332999999999986

> <Lipinski_Violations>
0

> <Insecticide_Likeness_Violations>
0

> <Post_Em_Herbicide_Likeness_Violations>
0

> <Metabolite_ID>
BTM00012

> <Reaction>
Reduction of ketone to alcohol

> <Reaction_ID>
BTMR1171

> <Enzyme(s)>
CYP2C9

> <Biosystem>
HUMAN

> <Precursor_ID>


> <Precursor_SMILES>
C[C@]12CCC(=O)C=C1CC[C@@H]3[C@@H]2CC[C@]4(C)C(=O)CC[C@@H]34

> <Precursor_InChI>
InChI=1S/C19H26O2/c1-18-9-7-13(20)11-12(18)3-4-14-15-5-6-17(21)19(15,2)10-8-16(14)18/h11,14-16H,3-10H2,1-2H3/t14-,15-,16-,18-,19-/m0/s1

> <Precursor_InChIKey>
AEMFNILZOJDQLW-QAGGRKNESA-N

> <Precursor_ALogP>


> <Precursor_Major_Isotope_Mass>
286.1932

$$$$
BTM00001
  CDK     09122622082D

 21 24  0  0  1  0  0  0  0  0999 V2000
   -1.6800    1.1900    0.0000 C   0  0  0  0  0  0  0  0  0  0  0  0
   -1.6800   -0.3100    0.0000 C   0  0  2  0  0  0  0  0  0  0  0  0
   -2.9800    0.4400    0.0000 C   0  0  0  0  0  0  0  0  0  0  0  0
   -4.2800   -0.3100    0.0000 C   0  0  0  0  0  0  0  0  0  0  0  0
   -4.2800   -1.8100    0.0000 C   0  0  0  0  0  0  0  0  0  0  0  0
   -5.5789   -2.5602    0.0000 O   0  0  0  0  0  0  0  0  0  0  0  0
   -2.9800   -2.5600    0.0000 C   0  0  0  0  0  0  0  0  0  0  0  0
   -1.6800   -1.8100    0.0000 C   0  0  0  0  0  0  0  0  0  0  0  0
   -0.3800   -2.5600    0.0000 C   0  0  0  0  0  0  0  0  0  0  0  0
    0.9200   -1.8100    0.0000 C   0  0  0  0  0  0  0  0  0  0  0  0
    0.9200   -0.3100    0.0000 C   0  0  2  0  0  0  0  0  0  0  0  0
   -0.3800    0.4400    0.0000 C   0  0  2  0  0  0  0  0  0  0  0  0
   -0.3800    1.9400    0.0000 C   0  0  0  0  0  0  0  0  0  0  0  0
    0.9200    2.6900    0.0000 C   0  0  0  0  0  0  0  0  0  0  0  0
    2.2200    1.9400    0.0000 C   0  0  2  0  0  0  0  0  0  0  0  0
    2.3787    3.4316    0.0000 C   0  0  0  0  0  0  0  0  0  0  0  0
    3.6500    2.4000    0.0000 C   0  0  0  0  0  0  0  0  0  0  0  0
    4.1153    3.8260    0.0000 O   0  0  0  0  0  0  0  0  0  0  0  0
    4.5300    1.1900    0.0000 C   0  0  0  0  0  0  0  0  0  0  0  0
    3.6500   -0.0200    0.0000 C   0  0  0  0  0  0  0  0  0  0  0  0
    2.2200    0.4400    0.0000 C   0  0  1  0  0  0  0  0  0  0  0  0
  2  1  1  1  0  0  0
  2  3  1  0  0  0  0
  3  4  1  0  0  0  0
  4  5  1  0  0  0  0
  5  6  1  0  0  0  0
  5  7  1  0  0  0  0
  7  8  2  0  0  0  0
  2  8  1  0  0  0  0
  8  9  1  0  0  0  0
  9 10  1  0  0  0  0
 11 10  1  6  0  0  0
 11 12  1  0  0  0  0
  2 12  1  0  0  0  0
 12 13  1  1  0  0  0
 13 14  1  0  0  0  0
 14 15  1  0  0  0  0
 15 16  1  1  0  0  0
 15 17  1  0  0  0  0
 17 18  2  0  0  0  0
 17 19  1  0  0  0  0
 19 20  1  0  0  0  0
 21 20  1  1  0  0  0
 11 21  1  0  0  0  0
 15 21  1  0  0  0  0
M  END
> <InChI>
InChI=1S/C19H28O2/c1-18-9-7-13(20)11-12(18)3-4-14-15-5-6-17(21)19(15,2)10-8-16(14)18/h11,13-16,20H,3-10H2,1-2H3/t13?,14-,15-,16-,18-,19-/m0/s1

> <InChIKey>
VMYTXBKVYDESSJ-HQEMIIEJSA-N

> <SMILES>
C[C@]12CCC(O)C=C1CC[C@@H]3[C@@H]2CC[C@]4(C)C(=O)CC[C@@H]34

> <Synonyms>


> <PUBCHEM_CID>


> <Molecular_formula>
C19H28O2

> <Major_Isotope_Mass>
288.208930136

> <ALogP>
3.3332999999999986

> <Lipinski_Violations>
0

> <Insecticide_Likeness_Violations>
0

> <Post_Em_Herbicide_Likeness_Violations>
0

> <Metabolite_ID>
BTM00001

> <Reaction>
Reduction of ketone to alcohol

> <Reaction_ID>
BTMR1171

> <Enzyme(s)>
CYP2C9

> <Biosystem>
HUMAN

> <Precursor_ID>


> <Precursor_SMILES>
C[C@]12CCC(=O)C=C1CC[C@@H]3[C@@H]2CC[C@]4(C)C(=O)CC[C@@H]34

> <Precursor_InChI>
InChI=1S/C19H26O2/c1-18-9-7-13(20)11-12(18)3-4-14-15-5-6-17(21)19(15,2)10-8-16(14)18/h11,14-16H,3-10H2,1-2H3/t14-,15-,16-,18-,19-/m0/s1

> <Precursor_InChIKey>
AEMFNILZOJDQLW-QAGGRKNESA-N

> <Precursor_ALogP>


> <Precursor_Major_Isotope_Mass>
286.1932

$$$$
BTM00013
  CDK     09122622082D

 21 24  0  0  1  0  0  0  0  0999 V2000
   -1.6800    1.1900    0.0000 C   0  0  0  0  0  0  0  0  0  0  0  0
   -1.6800   -0.3100    0.0000 C   0  0  2  0  0  0  0  0  0  0  0  0
   -2.9800    0.4400    0.0000 C   0  0  0  0  0  0  0  0  0  0  0  0
   -4.2800   -0.3100    0.0000 C   0  0  0  0  0  0  0  0  0  0  0  0
   -4.2800   -1.8100    0.0000 C   0  0  0  0  0  0  0  0  0  0  0  0
   -5.5789   -2.5602    0.0000 O   0  0  0  0  0  0  0  0  0  0  0  0
   -2.9800   -2.5600    0.0000 C   0  0  0  0  0  0  0  0  0  0  0  0
   -1.6800   -1.8100    0.0000 C   0  0  0  0  0  0  0  0  0  0  0  0
   -0.3800   -2.5600    0.0000 C   0  0  0  0  0  0  0  0  0  0  0  0
    0.9200   -1.8100    0.0000 C   0  0  0  0  0  0  0  0  0  0  0  0
    0.9200   -0.3100    0.0000 C   0  0  2  0  0  0  0  0  0  0  0  0
   -0.3800    0.4400    0.0000 C   0  0  2  0  0  0  0  0  0  0  0  0
   -0.3800    1.9400    0.0000 C   0  0  0  0  0  0  0  0  0  0  0  0
    0.9200    2.6900    0.0000 C   0  0  0  0  0  0  0  0  0  0  0  0
    2.2200    1.9400    0.0000 C   0  0  2  0  0  0  0  0  0  0  0  0
    2.3787    3.4316    0.0000 C   0  0  0  0  0  0  0  0  0  0  0  0
    3.6500    2.4000    0.0000 C   0  0  0  0  0  0  0  0  0  0  0  0
    4.1153    3.8260    0.0000 O   0  0  0  0  0  0  0  0  0  0  0  0
    4.5300    1.1900    0.0000 C   0  0  0  0  0  0  0  0  0  0  0  0
    3.6500   -0.0200    0.0000 C   0  0  0  0  0  0  0  0  0  0  0  0
    2.2200    0.4400    0.0000 C   0  0  1  0  0  0  0  0  0  0  0  0
  2  1  1  1  0  0  0
  2  3  1  0  0  0  0
  3  4  1  0  0  0  0
  4  5  1  0  0  0  0
  5  6  2  0  0  0  0
  5  7  1  0  0  0  0
  7  8  1  0  0  0  0
  2  8  1  0  0  0  0
  8  9  1  0  0  0  0
  9 10  1  0  0  0  0
 11 10  1  6  0  0  0
 11 12  1  0  0  0  0
  2 12  1  0  0  0  0
 12 13  1  1  0  0  0
 13 14  1  0  0  0  0
 14 15  1  0  0  0  0
 15 16  1  1  0  0  0
 15 17  1  0  0  0  0
 17 18  2  0  0  0  0
 17 19  1  0  0  0  0
 19 20  1  0  0  0  0
 21 20  1  1  0  0  0
 11 21  1  0  0  0  0
 15 21  1  0  0  0  0
M  END
> <InChI>
InChI=1S/C19H28O2/c1-18-9-7-13(20)11-12(18)3-4-14-15-5-6-17(21)19(15,2)10-8-16(14)18/h12,14-16H,3-11H2,1-2H3/t12?,14-,15-,16-,18-,19-/m0/s1

> <InChIKey>
RAJWOBJTTGJROA-RNQTWYFASA-N

> <SMILES>
C[C@]12CCC(=O)CC1CC[C@@H]3[C@@H]2CC[C@]4(C)C(=O)CC[C@@H]34

> <Synonyms>


> <PUBCHEM_CID>


> <Molecular_formula>
C19H28O2

> <Major_Isotope_Mass>
288.208930136

> <ALogP>
3.1223999999999967

> <Lipinski_Violations>
0

> <Insecticide_Likeness_Violations>
0

> <Post_Em_Herbicide_Likeness_Violations>
0

> <Metabolite_ID>
BTM00013

> <Reaction>
Reduction of alpha,beta-unsaturated carbon-carbon double bond adjacent to electron withdrawing group

> <Reaction_ID>
BTMR1209

> <Enzyme(s)>
EC 1.6.99.1

> <Biosystem>
GUTMICRO

> <Precursor_ID>


> <Precursor_SMILES>
C[C@]12CCC(=O)C=C1CC[C@@H]3[C@@H]2CC[C@]4(C)C(=O)CC[C@@H]34

> <Precursor_InChI>
InChI=1S/C19H26O2/c1-18-9-7-13(20)11-12(18)3-4-14-15-5-6-17(21)19(15,2)10-8-16(14)18/h11,14-16H,3-10H2,1-2H3/t14-,15-,16-,18-,19-/m0/s1

> <Precursor_InChIKey>
AEMFNILZOJDQLW-QAGGRKNESA-N

> <Precursor_ALogP>


> <Precursor_Major_Isotope_Mass>
286.1932

$$$$
