BTM00001
  CDK     09122622442D

 24 27  0  0  1  0  0  0  0  0999 V2000
    6.6380    3.0206    0.0000 C   0  0  0  0  0  0  0  0  0  0  0  0
    5.3384    2.2714    0.0000 C   0  0  0  0  0  0  0  0  0  0  0  0
    4.0389    1.5223    0.0000 C   0  0  2  0  0  0  0  0  0  0  0  0
    3.0424    3.7714    0.0000 O   0  0  0  0  0  0  0  0  0  0  0  0
    4.9189    0.3123    0.0000 C   0  0  0  0  0  0  0  0  0  0  0  0
    4.0389   -0.8977    0.0000 C   0  0  0  0  0  0  0  0  0  0  0  0
    2.6089   -0.4377    0.0000 C   0  0  1  0  0  0  0  0  0  0  0  0
    1.3089   -1.1877    0.0000 C   0  0  2  0  0  0  0  0  0  0  0  0
    1.3089   -2.6877    0.0000 C   0  0  2  0  0  0  0  0  0  0  0  0
    2.6078   -3.4379    0.0000 C   0  0  0  0  0  0  0  0  0  0  0  0
    0.0089   -3.4377    0.0000 C   0  0  0  0  0  0  0  0  0  0  0  0
   -1.2911   -2.6877    0.0000 C   0  0  0  0  0  0  0  0  0  0  0  0
   -1.2911   -1.1877    0.0000 C   0  0  0  0  0  0  0  0  0  0  0  0
   -2.5911   -0.4377    0.0000 C   0  0  0  0  0  0  0  0  0  0  0  0
   -3.8911   -1.1877    0.0000 C   0  0  0  0  0  0  0  0  0  0  0  0
   -3.8911   -2.6877    0.0000 C   0  0  0  0  0  0  0  0  0  0  0  0
   -5.1900   -3.4379    0.0000 O   0  0  0  0  0  0  0  0  0  0  0  0
   -2.5911   -3.4377    0.0000 C   0  0  0  0  0  0  0  0  0  0  0  0
    0.0089   -0.4377    0.0000 C   0  0  1  0  0  0  0  0  0  0  0  0
    0.0089    1.0623    0.0000 C   0  0  0  0  0  0  0  0  0  0  0  0
    1.3089    1.8123    0.0000 C   0  0  0  0  0  0  0  0  0  0  0  0
    2.6089    1.0623    0.0000 C   0  0  2  0  0  0  0  0  0  0  0  0
    3.6075   -0.0570    0.0000 C   0  0  0  0  0  0  0  0  0  0  0  0
   -1.2900    1.8125    0.0000 O   0  0  0  0  0  0  0  0  0  0  0  0
  1  2  3  0  0  0  0
  3  2  1  6  0  0  0
  3  4  1  1  0  0  0
  3  5  1  0  0  0  0
  5  6  1  0  0  0  0
  7  6  1  1  0  0  0
  8  7  1  6  0  0  0
  8  9  1  0  0  0  0
  9 10  1  6  0  0  0
  9 11  1  0  0  0  0
 11 12  1  0  0  0  0
 12 13  2  0  0  0  0
 13 14  1  0  0  0  0
 14 15  1  0  0  0  0
 15 16  1  0  0  0  0
 16 17  2  0  0  0  0
 16 18  1  0  0  0  0
 12 18  1  0  0  0  0
 19 13  1  1  0  0  0
  8 19  1  0  0  0  0
 19 20  1  0  0  0  0
 20 21  1  0  0  0  0
 21 22  1  0  0  0  0
  7 22  1  0  0  0  0
  3 22  1  0  0  0  0
 22 23  1  1  0  0  0
 24 20  1  0  0  0  0
M  END
> <InChI>
InChI=1S/C21H28O3/c1-4-21(24)8-7-16-18-12(2)9-13-10-14(22)5-6-15(13)19(18)17(23)11-20(16,21)3/h1,12,16-19,23-24H,5-11H2,2-3H3/t12-,16+,17?,18+,19+,20+,21+/m1/s1

> <InChIKey>
XOWUIHPNSSRVNC-OQJGVVRZSA-N

> <SMILES>
C#C[C@]1(O)CC[C@H]2[C@@H]3[C@H](C)CC4=C(CCC(=O)C4)[C@H]3C(C[C@@]21C)O

> <Synonyms>


> <PUBCHEM_CID>


> <Molecular_formula>
C21H28O3

> <Major_Isotope_Mass>
328.20384475599997

> <ALogP>
3.0310999999999977

> <Lipinski_Violations>
0

> <Insecticide_Likeness_Violations>
0

> <Post_Em_Herbicide_Likeness_Violations>
0

> <Metabolite_ID>
BTM00001

> <Reaction>
11-beta-Hydroxylation of sterol

> <Reaction_ID>
BTMR0406

> <Enzyme(s)>
EC 1.14.15.4

> <Biosystem>
HUMAN

> <Precursor_ID>


> <Precursor_SMILES>
C#C[C@]1(O)CC[C@H]2[C@@H]3[C@H](C)CC4=C(CCC(=O)C4)[C@H]3CC[C@@]21C

> <Precursor_InChI>
InChI=1S/C21H28O2/c1-4-21(23)10-8-18-19-13(2)11-14-12-15(22)5-6-16(14)17(19)7-9-20(18,21)3/h1,13,17-19,23H,5-12H2,2-3H3/t13-,17-,18+,19-,20+,21+/m1/s1

> <Precursor_InChIKey>
WZDGZWOAQTVYBX-XOINTXKNSA-N

> <Precursor_ALogP>


> <Precursor_Major_Isotope_Mass>
312.2089

$$$$
BTM00002
  CDK     09122622442D

 35 39  0  0  1  0  0  0  0  0999 V2000
    6.1127    3.2163    0.0000 C   0  0  0  0  0  0  0  0  0  0  0  0
    4.8069    2.4780    0.0000 C   0  0  0  0  0  0  0  0  0  0  0  0
    3.5012    1.7397    0.0000 C   0  0  2  0  0  0  0  0  0  0  0  0
    2.7124    3.5558    0.0000 O   0  0  0  0  0  0  0  0  0  0  0  0
    4.3712    0.5197    0.0000 C   0  0  0  0  0  0  0  0  0  0  0  0
    3.4712   -0.6903    0.0000 C   0  0  0  0  0  0  0  0  0  0  0  0
    2.0512   -0.1903    0.0000 C   0  0  1  0  0  0  0  0  0  0  0  0
    0.7612   -0.9303    0.0000 C   0  0  2  0  0  0  0  0  0  0  0  0
    0.7612   -2.4303    0.0000 C   0  0  2  0  0  0  0  0  0  0  0  0
    2.0589   -3.1826    0.0000 C   0  0  0  0  0  0  0  0  0  0  0  0
   -0.5488   -3.1803    0.0000 C   0  0  0  0  0  0  0  0  0  0  0  0
   -1.8388   -2.4203    0.0000 C   0  0  0  0  0  0  0  0  0  0  0  0
   -1.8288   -0.9203    0.0000 C   0  0  0  0  0  0  0  0  0  0  0  0
   -3.1288   -0.1703    0.0000 C   0  0  0  0  0  0  0  0  0  0  0  0
   -4.4288   -0.9203    0.0000 C   0  0  0  0  0  0  0  0  0  0  0  0
   -4.4288   -2.4203    0.0000 C   0  0  0  0  0  0  0  0  0  0  0  0
   -5.7277   -3.1705    0.0000 O   0  0  0  0  0  0  0  0  0  0  0  0
   -3.1288   -3.1703    0.0000 C   0  0  0  0  0  0  0  0  0  0  0  0
   -0.5288   -0.1803    0.0000 C   0  0  1  0  0  0  0  0  0  0  0  0
   -0.5188    1.3197    0.0000 C   0  0  0  0  0  0  0  0  0  0  0  0
    0.7812    2.0597    0.0000 C   0  0  0  0  0  0  0  0  0  0  0  0
    2.0712    1.2897    0.0000 C   0  0  2  0  0  0  0  0  0  0  0  0
    2.2458    2.7795    0.0000 C   0  0  0  0  0  0  0  0  0  0  0  0
    1.5267    6.3064    0.0000 O   0  0  0  0  0  0  0  0  0  0  0  0
    3.0163    6.1300    0.0000 C   0  0  0  0  0  0  0  0  0  0  0  0
    3.9285    7.3498    0.0000 C   0  0  0  0  0  0  0  0  0  0  0  0
    3.3403    8.7296    0.0000 O   0  0  0  0  0  0  0  0  0  0  0  0
    5.4230    7.1654    0.0000 C   0  0  0  0  0  0  0  0  0  0  0  0
    6.3232    8.3653    0.0000 O   0  0  0  0  0  0  0  0  0  0  0  0
    6.0119    5.7967    0.0000 C   0  0  0  0  0  0  0  0  0  0  0  0
    5.1141    4.5940    0.0000 O   0  0  0  0  0  0  0  0  0  0  0  0
    3.6052    4.7613    0.0000 C   0  0  0  0  0  0  0  0  0  0  0  0
    7.5016    5.6209    0.0000 C   0  0  0  0  0  0  0  0  0  0  0  0
    8.3986    6.8231    0.0000 O   0  0  0  0  0  0  0  0  0  0  0  0
    8.0941    4.2429    0.0000 O   0  0  0  0  0  0  0  0  0  0  0  0
  1  2  3  0  0  0  0
  3  2  1  6  0  0  0
  3  4  1  1  0  0  0
  3  5  1  0  0  0  0
  5  6  1  0  0  0  0
  7  6  1  1  0  0  0
  8  7  1  6  0  0  0
  8  9  1  0  0  0  0
  9 10  1  6  0  0  0
  9 11  1  0  0  0  0
 11 12  1  0  0  0  0
 12 13  2  0  0  0  0
 13 14  1  0  0  0  0
 14 15  1  0  0  0  0
 15 16  1  0  0  0  0
 16 17  2  0  0  0  0
 16 18  1  0  0  0  0
 12 18  1  0  0  0  0
 13 19  1  0  0  0  0
  8 19  1  0  0  0  0
 19 20  1  1  0  0  0
 20 21  1  0  0  0  0
 21 22  1  0  0  0  0
  7 22  1  0  0  0  0
  3 22  1  0  0  0  0
 22 23  1  1  0  0  0
 24 25  1  0  0  0  0
 25 26  1  0  0  0  0
 26 27  1  0  0  0  0
 26 28  1  0  0  0  0
 28 29  1  0  0  0  0
 28 30  1  0  0  0  0
 30 31  1  0  0  0  0
 31 32  1  0  0  0  0
 25 32  1  0  0  0  0
 32  4  1  0  0  0  0
 30 33  1  0  0  0  0
 33 34  1  0  0  0  0
 33 35  2  0  0  0  0
M  END
> <InChI>
InChI=1S/C27H36O8/c1-4-27(35-25-22(31)20(29)21(30)23(34-25)24(32)33)10-8-18-19-13(2)11-14-12-15(28)5-6-16(14)17(19)7-9-26(18,27)3/h1,13,17-23,25,29-31H,5-12H2,2-3H3,(H,32,33)/t13-,17-,18+,19-,20?,21?,22?,23?,25?,26+,27+/m1/s1

> <InChIKey>
BMKLFOYBGNQSMM-VKIUSXJCSA-N

> <SMILES>
C#C[C@]1(OC2OC(C(C(C2O)O)O)C(O)=O)CC[C@H]3[C@@H]4[C@H](C)CC5=C(CCC(=O)C5)[C@H]4CC[C@@]31C

> <Synonyms>


> <PUBCHEM_CID>


> <Molecular_formula>
C27H36O8

> <Major_Isotope_Mass>
488.241018112

> <ALogP>
2.6624999999999974

> <Lipinski_Violations>
0

> <Insecticide_Likeness_Violations>
1

> <Post_Em_Herbicide_Likeness_Violations>
1

> <Metabolite_ID>
BTM00002

> <Reaction>
17-OH-Glucuronidation of sterol

> <Reaction_ID>
BTMR0163

> <Enzyme(s)>
EC 2.4.1.17

> <Biosystem>
HUMAN

> <Precursor_ID>


> <Precursor_SMILES>
C#C[C@]1(O)CC[C@H]2[C@@H]3[C@H](C)CC4=C(CCC(=O)C4)[C@H]3CC[C@@]21C

> <Precursor_InChI>
InChI=1S/C21H28O2/c1-4-21(23)10-8-18-19-13(2)11-14-12-15(22)5-6-16(14)17(19)7-9-20(18,21)3/h1,13,17-19,23H,5-12H2,2-3H3/t13-,17-,18+,19-,20+,21+/m1/s1

> <Precursor_InChIKey>
WZDGZWOAQTVYBX-XOINTXKNSA-N

> <Precursor_ALogP>


> <Precursor_Major_Isotope_Mass>
312.2089

$$$$
BTM00003
  CDK     09122622442D

 24 27  0  0  1  0  0  0  0  0999 V2000
    6.6380    3.0206    0.0000 C   0  0  0  0  0  0  0  0  0  0  0  0
    5.3384    2.2714    0.0000 C   0  0  0  0  0  0  0  0  0  0  0  0
    4.0389    1.5223    0.0000 C   0  0  2  0  0  0  0  0  0  0  0  0
    3.0424    3.7714    0.0000 O   0  0  0  0  0  0  0  0  0  0  0  0
    4.9189    0.3123    0.0000 C   0  0  0  0  0  0  0  0  0  0  0  0
    4.0389   -0.8977    0.0000 C   0  0  0  0  0  0  0  0  0  0  0  0
    2.6089   -0.4377    0.0000 C   0  0  1  0  0  0  0  0  0  0  0  0
    1.3089   -1.1877    0.0000 C   0  0  2  0  0  0  0  0  0  0  0  0
    1.3089   -2.6877    0.0000 C   0  0  2  0  0  0  0  0  0  0  0  0
    2.6078   -3.4379    0.0000 C   0  0  0  0  0  0  0  0  0  0  0  0
    0.0089   -3.4377    0.0000 C   0  0  0  0  0  0  0  0  0  0  0  0
   -1.2911   -2.6877    0.0000 C   0  0  0  0  0  0  0  0  0  0  0  0
   -1.2911   -1.1877    0.0000 C   0  0  0  0  0  0  0  0  0  0  0  0
   -2.5911   -0.4377    0.0000 C   0  0  0  0  0  0  0  0  0  0  0  0
   -3.8911   -1.1877    0.0000 C   0  0  0  0  0  0  0  0  0  0  0  0
   -3.8911   -2.6877    0.0000 C   0  0  0  0  0  0  0  0  0  0  0  0
   -5.1900   -3.4379    0.0000 O   0  0  0  0  0  0  0  0  0  0  0  0
   -2.5911   -3.4377    0.0000 C   0  0  0  0  0  0  0  0  0  0  0  0
    0.0089   -0.4377    0.0000 C   0  0  1  0  0  0  0  0  0  0  0  0
    0.0089    1.0623    0.0000 C   0  0  0  0  0  0  0  0  0  0  0  0
    1.3089    1.8123    0.0000 C   0  0  0  0  0  0  0  0  0  0  0  0
    2.6089    1.0623    0.0000 C   0  0  2  0  0  0  0  0  0  0  0  0
    3.6075   -0.0570    0.0000 C   0  0  0  0  0  0  0  0  0  0  0  0
    6.4189    0.3123    0.0000 O   0  0  0  0  0  0  0  0  0  0  0  0
  1  2  3  0  0  0  0
  3  2  1  6  0  0  0
  3  4  1  1  0  0  0
  3  5  1  0  0  0  0
  5  6  1  0  0  0  0
  7  6  1  1  0  0  0
  8  7  1  6  0  0  0
  8  9  1  0  0  0  0
  9 10  1  6  0  0  0
  9 11  1  0  0  0  0
 11 12  1  0  0  0  0
 12 13  2  0  0  0  0
 13 14  1  0  0  0  0
 14 15  1  0  0  0  0
 15 16  1  0  0  0  0
 16 17  2  0  0  0  0
 16 18  1  0  0  0  0
 12 18  1  0  0  0  0
 13 19  1  0  0  0  0
  8 19  1  0  0  0  0
 19 20  1  1  0  0  0
 20 21  1  0  0  0  0
 21 22  1  0  0  0  0
  7 22  1  0  0  0  0
  3 22  1  0  0  0  0
 22 23  1  1  0  0  0
 24  5  1  0  0  0  0
M  END
> <InChI>
InChI=1S/C21H28O3/c1-4-21(24)18(23)11-17-19-12(2)9-13-10-14(22)5-6-15(13)16(19)7-8-20(17,21)3/h1,12,16-19,23-24H,5-11H2,2-3H3/t12-,16-,17+,18?,19-,20+,21+/m1/s1

> <InChIKey>
VIZWEPZRUXEKJQ-VSQCOYGJSA-N

> <SMILES>
C#C[C@]1(O)C(C[C@H]2[C@@H]3[C@H](C)CC4=C(CCC(=O)C4)[C@H]3CC[C@@]21C)O

> <Synonyms>


> <PUBCHEM_CID>


> <Molecular_formula>
C21H28O3

> <Major_Isotope_Mass>
328.20384475599997

> <ALogP>
3.2335999999999974

> <Lipinski_Violations>
0

> <Insecticide_Likeness_Violations>
0

> <Post_Em_Herbicide_Likeness_Violations>
0

> <Metabolite_ID>
BTM00003

> <Reaction>
16-Hydroxylation of sterol

> <Reaction_ID>
BTMR0407

> <Enzyme(s)>
CYP1A2
CYP2A6
CYP2B6
CYP2C8
CYP2C9
CYP2C19
CYP2D6
CYP2E1
CYP3A4

> <Biosystem>
HUMAN

> <Precursor_ID>


> <Precursor_SMILES>
C#C[C@]1(O)CC[C@H]2[C@@H]3[C@H](C)CC4=C(CCC(=O)C4)[C@H]3CC[C@@]21C

> <Precursor_InChI>
InChI=1S/C21H28O2/c1-4-21(23)10-8-18-19-13(2)11-14-12-15(22)5-6-16(14)17(19)7-9-20(18,21)3/h1,13,17-19,23H,5-12H2,2-3H3/t13-,17-,18+,19-,20+,21+/m1/s1

> <Precursor_InChIKey>
WZDGZWOAQTVYBX-XOINTXKNSA-N

> <Precursor_ALogP>


> <Precursor_Major_Isotope_Mass>
312.2089

$$$$
BTM00004
  CDK     09122622442D

 24 27  0  0  1  0  0  0  0  0999 V2000
    6.6380    3.0206    0.0000 C   0  0  0  0  0  0  0  0  0  0  0  0
    5.3384    2.2714    0.0000 C   0  0  0  0  0  0  0  0  0  0  0  0
    4.0389    1.5223    0.0000 C   0  0  2  0  0  0  0  0  0  0  0  0
    3.0424    3.7714    0.0000 O   0  0  0  0  0  0  0  0  0  0  0  0
    4.9189    0.3123    0.0000 C   0  0  0  0  0  0  0  0  0  0  0  0
    4.0389   -0.8977    0.0000 C   0  0  0  0  0  0  0  0  0  0  0  0
    2.6089   -0.4377    0.0000 C   0  0  1  0  0  0  0  0  0  0  0  0
    1.3089   -1.1877    0.0000 C   0  0  2  0  0  0  0  0  0  0  0  0
    1.3089   -2.6877    0.0000 C   0  0  2  0  0  0  0  0  0  0  0  0
    2.6078   -3.4379    0.0000 C   0  0  0  0  0  0  0  0  0  0  0  0
    0.0089   -3.4377    0.0000 C   0  0  0  0  0  0  0  0  0  0  0  0
   -1.2911   -2.6877    0.0000 C   0  0  0  0  0  0  0  0  0  0  0  0
   -1.2911   -1.1877    0.0000 C   0  0  0  0  0  0  0  0  0  0  0  0
   -2.5911   -0.4377    0.0000 C   0  0  0  0  0  0  0  0  0  0  0  0
   -3.8911   -1.1877    0.0000 C   0  0  0  0  0  0  0  0  0  0  0  0
   -3.8911   -2.6877    0.0000 C   0  0  0  0  0  0  0  0  0  0  0  0
   -5.1900   -3.4379    0.0000 O   0  0  0  0  0  0  0  0  0  0  0  0
   -2.5911   -3.4377    0.0000 C   0  0  0  0  0  0  0  0  0  0  0  0
    0.0089   -0.4377    0.0000 C   0  0  1  0  0  0  0  0  0  0  0  0
    0.0089    1.0623    0.0000 C   0  0  0  0  0  0  0  0  0  0  0  0
    1.3089    1.8123    0.0000 C   0  0  0  0  0  0  0  0  0  0  0  0
    2.6089    1.0623    0.0000 C   0  0  2  0  0  0  0  0  0  0  0  0
    3.6075   -0.0570    0.0000 C   0  0  0  0  0  0  0  0  0  0  0  0
   -5.1900   -0.4375    0.0000 O   0  0  0  0  0  0  0  0  0  0  0  0
  1  2  3  0  0  0  0
  3  2  1  6  0  0  0
  3  4  1  1  0  0  0
  3  5  1  0  0  0  0
  5  6  1  0  0  0  0
  7  6  1  1  0  0  0
  8  7  1  6  0  0  0
  8  9  1  0  0  0  0
  9 10  1  6  0  0  0
  9 11  1  0  0  0  0
 11 12  1  0  0  0  0
 12 13  2  0  0  0  0
 13 14  1  0  0  0  0
 14 15  1  0  0  0  0
 15 16  1  0  0  0  0
 16 17  2  0  0  0  0
 16 18  1  0  0  0  0
 12 18  1  0  0  0  0
 13 19  1  0  0  0  0
  8 19  1  0  0  0  0
 19 20  1  1  0  0  0
 20 21  1  0  0  0  0
 21 22  1  0  0  0  0
  7 22  1  0  0  0  0
  3 22  1  0  0  0  0
 22 23  1  1  0  0  0
 24 15  1  0  0  0  0
M  END
> <InChI>
InChI=1S/C21H28O3/c1-4-21(24)8-6-16-19-12(2)9-13-10-17(22)18(23)11-15(13)14(19)5-7-20(16,21)3/h1,12,14,16,18-19,23-24H,5-11H2,2-3H3/t12-,14-,16+,18?,19-,20+,21+/m1/s1

> <InChIKey>
HHAPKPAUUOJWHP-PYCUVFBASA-N

> <SMILES>
C#C[C@]1(O)CC[C@H]2[C@@H]3[C@H](C)CC4=C(CC(C(=O)C4)O)[C@H]3CC[C@@]21C

> <Synonyms>


> <PUBCHEM_CID>


> <Molecular_formula>
C21H28O3

> <Major_Isotope_Mass>
328.20384475599997

> <ALogP>
3.519999999999997

> <Lipinski_Violations>
0

> <Insecticide_Likeness_Violations>
0

> <Post_Em_Herbicide_Likeness_Violations>
0

> <Metabolite_ID>
BTM00004

> <Reaction>
2-Hydroxylation of sterol

> <Reaction_ID>
BTMR0398

> <Enzyme(s)>
CYP1A2
CYP2C19
CYP3A4

> <Biosystem>
HUMAN

> <Precursor_ID>


> <Precursor_SMILES>
C#C[C@]1(O)CC[C@H]2[C@@H]3[C@H](C)CC4=C(CCC(=O)C4)[C@H]3CC[C@@]21C

> <Precursor_InChI>
InChI=1S/C21H28O2/c1-4-21(23)10-8-18-19-13(2)11-14-12-15(22)5-6-16(14)17(19)7-9-20(18,21)3/h1,13,17-19,23H,5-12H2,2-3H3/t13-,17-,18+,19-,20+,21+/m1/s1

> <Precursor_InChIKey>
WZDGZWOAQTVYBX-XOINTXKNSA-N

> <Precursor_ALogP>


> <Precursor_Major_Isotope_Mass>
312.2089

$$$$
BTM00005
  CDK     09122622442D

 24 27  0  0  1  0  0  0  0  0999 V2000
    6.6380    3.0206    0.0000 C   0  0  0  0  0  0  0  0  0  0  0  0
    5.3384    2.2714    0.0000 C   0  0  0  0  0  0  0  0  0  0  0  0
    4.0389    1.5223    0.0000 C   0  0  2  0  0  0  0  0  0  0  0  0
    3.0424    3.7714    0.0000 O   0  0  0  0  0  0  0  0  0  0  0  0
    4.9189    0.3123    0.0000 C   0  0  0  0  0  0  0  0  0  0  0  0
    4.0389   -0.8977    0.0000 C   0  0  0  0  0  0  0  0  0  0  0  0
    2.6089   -0.4377    0.0000 C   0  0  1  0  0  0  0  0  0  0  0  0
    1.3089   -1.1877    0.0000 C   0  0  2  0  0  0  0  0  0  0  0  0
    1.3089   -2.6877    0.0000 C   0  0  2  0  0  0  0  0  0  0  0  0
    2.6078   -3.4379    0.0000 C   0  0  0  0  0  0  0  0  0  0  0  0
    0.0089   -3.4377    0.0000 C   0  0  0  0  0  0  0  0  0  0  0  0
   -1.2911   -2.6877    0.0000 C   0  0  0  0  0  0  0  0  0  0  0  0
   -1.2911   -1.1877    0.0000 C   0  0  0  0  0  0  0  0  0  0  0  0
   -2.5911   -0.4377    0.0000 C   0  0  0  0  0  0  0  0  0  0  0  0
   -3.8911   -1.1877    0.0000 C   0  0  0  0  0  0  0  0  0  0  0  0
   -3.8911   -2.6877    0.0000 C   0  0  0  0  0  0  0  0  0  0  0  0
   -5.1900   -3.4379    0.0000 O   0  0  0  0  0  0  0  0  0  0  0  0
   -2.5911   -3.4377    0.0000 C   0  0  0  0  0  0  0  0  0  0  0  0
    0.0089   -0.4377    0.0000 C   0  0  1  0  0  0  0  0  0  0  0  0
    0.0089    1.0623    0.0000 C   0  0  0  0  0  0  0  0  0  0  0  0
    1.3089    1.8123    0.0000 C   0  0  0  0  0  0  0  0  0  0  0  0
    2.6089    1.0623    0.0000 C   0  0  2  0  0  0  0  0  0  0  0  0
    3.6075   -0.0570    0.0000 C   0  0  0  0  0  0  0  0  0  0  0  0
   -2.5911   -4.9377    0.0000 O   0  0  0  0  0  0  0  0  0  0  0  0
  1  2  3  0  0  0  0
  3  2  1  6  0  0  0
  3  4  1  1  0  0  0
  3  5  1  0  0  0  0
  5  6  1  0  0  0  0
  7  6  1  1  0  0  0
  8  7  1  6  0  0  0
  8  9  1  0  0  0  0
  9 10  1  6  0  0  0
  9 11  1  0  0  0  0
 11 12  1  0  0  0  0
 12 13  2  0  0  0  0
 13 14  1  0  0  0  0
 14 15  1  0  0  0  0
 15 16  1  0  0  0  0
 16 17  2  0  0  0  0
 16 18  1  0  0  0  0
 12 18  1  0  0  0  0
 13 19  1  0  0  0  0
  8 19  1  0  0  0  0
 19 20  1  1  0  0  0
 20 21  1  0  0  0  0
 21 22  1  0  0  0  0
  7 22  1  0  0  0  0
  3 22  1  0  0  0  0
 22 23  1  1  0  0  0
 24 18  1  0  0  0  0
M  END
> <InChI>
InChI=1S/C21H28O3/c1-4-21(24)10-8-16-18-12(2)11-15-13(5-6-17(22)19(15)23)14(18)7-9-20(16,21)3/h1,12,14,16,18-19,23-24H,5-11H2,2-3H3/t12-,14-,16+,18-,19?,20+,21+/m1/s1

> <InChIKey>
FBOZXZDLUBFYEK-PKUXYXQISA-N

> <SMILES>
C#C[C@]1(O)CC[C@H]2[C@@H]3[C@H](C)CC4=C(CCC(=O)C4O)[C@H]3CC[C@@]21C

> <Synonyms>


> <PUBCHEM_CID>


> <Molecular_formula>
C21H28O3

> <Major_Isotope_Mass>
328.20384475599997

> <ALogP>
3.6549999999999967

> <Lipinski_Violations>
0

> <Insecticide_Likeness_Violations>
0

> <Post_Em_Herbicide_Likeness_Violations>
0

> <Metabolite_ID>
BTM00005

> <Reaction>
4-Hydroxylation of sterol

> <Reaction_ID>
BTMR0400

> <Enzyme(s)>
CYP1A2
CYP3A4

> <Biosystem>
HUMAN

> <Precursor_ID>


> <Precursor_SMILES>
C#C[C@]1(O)CC[C@H]2[C@@H]3[C@H](C)CC4=C(CCC(=O)C4)[C@H]3CC[C@@]21C

> <Precursor_InChI>
InChI=1S/C21H28O2/c1-4-21(23)10-8-18-19-13(2)11-14-12-15(22)5-6-16(14)17(19)7-9-20(18,21)3/h1,13,17-19,23H,5-12H2,2-3H3/t13-,17-,18+,19-,20+,21+/m1/s1

> <Precursor_InChIKey>
WZDGZWOAQTVYBX-XOINTXKNSA-N

> <Precursor_ALogP>


> <Precursor_Major_Isotope_Mass>
312.2089

$$$$
BTM00006
  CDK     09122622442D

 24 27  0  0  1  0  0  0  0  0999 V2000
    6.6380    3.0206    0.0000 C   0  0  0  0  0  0  0  0  0  0  0  0
    5.3384    2.2714    0.0000 C   0  0  0  0  0  0  0  0  0  0  0  0
    4.0389    1.5223    0.0000 C   0  0  2  0  0  0  0  0  0  0  0  0
    3.0424    3.7714    0.0000 O   0  0  0  0  0  0  0  0  0  0  0  0
    4.9189    0.3123    0.0000 C   0  0  0  0  0  0  0  0  0  0  0  0
    4.0389   -0.8977    0.0000 C   0  0  0  0  0  0  0  0  0  0  0  0
    2.6089   -0.4377    0.0000 C   0  0  1  0  0  0  0  0  0  0  0  0
    1.3089   -1.1877    0.0000 C   0  0  2  0  0  0  0  0  0  0  0  0
    1.3089   -2.6877    0.0000 C   0  0  2  0  0  0  0  0  0  0  0  0
    2.6078   -3.4379    0.0000 C   0  0  0  0  0  0  0  0  0  0  0  0
    0.0089   -3.4377    0.0000 C   0  0  0  0  0  0  0  0  0  0  0  0
   -1.2911   -2.6877    0.0000 C   0  0  0  0  0  0  0  0  0  0  0  0
   -1.2911   -1.1877    0.0000 C   0  0  0  0  0  0  0  0  0  0  0  0
   -2.5911   -0.4377    0.0000 C   0  0  0  0  0  0  0  0  0  0  0  0
   -3.8911   -1.1877    0.0000 C   0  0  0  0  0  0  0  0  0  0  0  0
   -3.8911   -2.6877    0.0000 C   0  0  0  0  0  0  0  0  0  0  0  0
   -5.1900   -3.4379    0.0000 O   0  0  0  0  0  0  0  0  0  0  0  0
   -2.5911   -3.4377    0.0000 C   0  0  0  0  0  0  0  0  0  0  0  0
    0.0089   -0.4377    0.0000 C   0  0  1  0  0  0  0  0  0  0  0  0
    0.0089    1.0623    0.0000 C   0  0  0  0  0  0  0  0  0  0  0  0
    1.3089    1.8123    0.0000 C   0  0  0  0  0  0  0  0  0  0  0  0
    2.6089    1.0623    0.0000 C   0  0  2  0  0  0  0  0  0  0  0  0
    3.6075   -0.0570    0.0000 C   0  0  0  0  0  0  0  0  0  0  0  0
    0.0089   -4.9377    0.0000 O   0  0  0  0  0  0  0  0  0  0  0  0
  1  2  3  0  0  0  0
  3  2  1  6  0  0  0
  3  4  1  1  0  0  0
  3  5  1  0  0  0  0
  5  6  1  0  0  0  0
  7  6  1  1  0  0  0
  8  7  1  6  0  0  0
  8  9  1  0  0  0  0
  9 10  1  6  0  0  0
  9 11  1  0  0  0  0
 11 12  1  0  0  0  0
 12 13  2  0  0  0  0
 13 14  1  0  0  0  0
 14 15  1  0  0  0  0
 15 16  1  0  0  0  0
 16 17  2  0  0  0  0
 16 18  1  0  0  0  0
 12 18  1  0  0  0  0
 13 19  1  0  0  0  0
  8 19  1  0  0  0  0
 19 20  1  1  0  0  0
 20 21  1  0  0  0  0
 21 22  1  0  0  0  0
  7 22  1  0  0  0  0
  3 22  1  0  0  0  0
 22 23  1  1  0  0  0
 24 11  1  0  0  0  0
M  END
> <InChI>
InChI=1S/C21H28O3/c1-4-21(24)10-8-17-18-12(2)19(23)16-11-13(22)5-6-14(16)15(18)7-9-20(17,21)3/h1,12,15,17-19,23-24H,5-11H2,2-3H3/t12-,15+,17-,18+,19?,20-,21-/m0/s1

> <InChIKey>
UBVPMVWSRCTBQD-VCRWVMRFSA-N

> <SMILES>
C#C[C@]1(O)CC[C@H]2[C@@H]3[C@H](C)C(C4=C(CCC(=O)C4)[C@H]3CC[C@@]21C)O

> <Synonyms>


> <PUBCHEM_CID>


> <Molecular_formula>
C21H28O3

> <Major_Isotope_Mass>
328.20384475599997

> <ALogP>
3.1660999999999975

> <Lipinski_Violations>
0

> <Insecticide_Likeness_Violations>
0

> <Post_Em_Herbicide_Likeness_Violations>
0

> <Metabolite_ID>
BTM00006

> <Reaction>
6-Hydroxylation of sterol

> <Reaction_ID>
BTMR0402

> <Enzyme(s)>
CYP2A6
CYP2B6
CYP2C8
CYP2C9
CYP2C19
CYP2D6
CYP3A4

> <Biosystem>
HUMAN

> <Precursor_ID>


> <Precursor_SMILES>
C#C[C@]1(O)CC[C@H]2[C@@H]3[C@H](C)CC4=C(CCC(=O)C4)[C@H]3CC[C@@]21C

> <Precursor_InChI>
InChI=1S/C21H28O2/c1-4-21(23)10-8-18-19-13(2)11-14-12-15(22)5-6-16(14)17(19)7-9-20(18,21)3/h1,13,17-19,23H,5-12H2,2-3H3/t13-,17-,18+,19-,20+,21+/m1/s1

> <Precursor_InChIKey>
WZDGZWOAQTVYBX-XOINTXKNSA-N

> <Precursor_ALogP>


> <Precursor_Major_Isotope_Mass>
312.2089

$$$$
BTM00007
  CDK     09122622442D

 24 27  0  0  1  0  0  0  0  0999 V2000
    6.6380    3.0206    0.0000 C   0  0  0  0  0  0  0  0  0  0  0  0
    5.3384    2.2714    0.0000 C   0  0  0  0  0  0  0  0  0  0  0  0
    4.0389    1.5223    0.0000 C   0  0  2  0  0  0  0  0  0  0  0  0
    3.0424    3.7714    0.0000 O   0  0  0  0  0  0  0  0  0  0  0  0
    4.9189    0.3123    0.0000 C   0  0  0  0  0  0  0  0  0  0  0  0
    4.0389   -0.8977    0.0000 C   0  0  0  0  0  0  0  0  0  0  0  0
    2.6089   -0.4377    0.0000 C   0  0  1  0  0  0  0  0  0  0  0  0
    1.3089   -1.1877    0.0000 C   0  0  2  0  0  0  0  0  0  0  0  0
    1.3089   -2.6877    0.0000 C   0  0  0  0  0  0  0  0  0  0  0  0
    1.8216   -4.0974    0.0000 C   0  0  0  0  0  0  0  0  0  0  0  0
    0.0089   -3.4377    0.0000 C   0  0  0  0  0  0  0  0  0  0  0  0
   -1.2911   -2.6877    0.0000 C   0  0  0  0  0  0  0  0  0  0  0  0
   -1.2911   -1.1877    0.0000 C   0  0  0  0  0  0  0  0  0  0  0  0
   -2.5911   -0.4377    0.0000 C   0  0  0  0  0  0  0  0  0  0  0  0
   -3.8911   -1.1877    0.0000 C   0  0  0  0  0  0  0  0  0  0  0  0
   -3.8911   -2.6877    0.0000 C   0  0  0  0  0  0  0  0  0  0  0  0
   -5.1900   -3.4379    0.0000 O   0  0  0  0  0  0  0  0  0  0  0  0
   -2.5911   -3.4377    0.0000 C   0  0  0  0  0  0  0  0  0  0  0  0
    0.0089   -0.4377    0.0000 C   0  0  1  0  0  0  0  0  0  0  0  0
    0.0089    1.0623    0.0000 C   0  0  0  0  0  0  0  0  0  0  0  0
    1.3089    1.8123    0.0000 C   0  0  0  0  0  0  0  0  0  0  0  0
    2.6089    1.0623    0.0000 C   0  0  2  0  0  0  0  0  0  0  0  0
    3.6075   -0.0570    0.0000 C   0  0  0  0  0  0  0  0  0  0  0  0
    2.7861   -2.4274    0.0000 O   0  0  0  0  0  0  0  0  0  0  0  0
  1  2  3  0  0  0  0
  3  2  1  6  0  0  0
  3  4  1  1  0  0  0
  3  5  1  0  0  0  0
  5  6  1  0  0  0  0
  7  6  1  1  0  0  0
  7  8  1  0  0  0  0
  8  9  1  6  0  0  0
  9 10  1  0  0  0  0
  9 11  1  0  0  0  0
 11 12  1  0  0  0  0
 12 13  2  0  0  0  0
 13 14  1  0  0  0  0
 14 15  1  0  0  0  0
 15 16  1  0  0  0  0
 16 17  2  0  0  0  0
 16 18  1  0  0  0  0
 12 18  1  0  0  0  0
 13 19  1  0  0  0  0
  8 19  1  0  0  0  0
 19 20  1  1  0  0  0
 20 21  1  0  0  0  0
 21 22  1  0  0  0  0
  7 22  1  0  0  0  0
  3 22  1  0  0  0  0
 22 23  1  1  0  0  0
  9 24  1  0  0  0  0
M  END
> <InChI>
InChI=1S/C21H28O3/c1-4-21(24)10-8-17-18-16(7-9-19(17,21)2)15-6-5-14(22)11-13(15)12-20(18,3)23/h1,16-18,23-24H,5-12H2,2-3H3/t16-,17+,18-,19+,20?,21+/m1/s1

> <InChIKey>
CJVUTMSBCICMQO-MQCITOEMSA-N

> <SMILES>
C#C[C@]1(O)CC[C@H]2[C@@H]3C(C)(CC4=C(CCC(=O)C4)[C@H]3CC[C@@]21C)O

> <Synonyms>


> <PUBCHEM_CID>


> <Molecular_formula>
C21H28O3

> <Major_Isotope_Mass>
328.20384475599997

> <ALogP>
2.9842999999999984

> <Lipinski_Violations>
0

> <Insecticide_Likeness_Violations>
0

> <Post_Em_Herbicide_Likeness_Violations>
0

> <Metabolite_ID>
BTM00007

> <Reaction>
Hydroxylation of penultimate aliphatic tertiary carbon

> <Reaction_ID>
BTMR1075

> <Enzyme(s)>
CYP2A6
CYP2B6
CYP2C8
CYP2C9
CYP2D6
CYP3A4

> <Biosystem>
HUMAN

> <Precursor_ID>


> <Precursor_SMILES>
C#C[C@]1(O)CC[C@H]2[C@@H]3[C@H](C)CC4=C(CCC(=O)C4)[C@H]3CC[C@@]21C

> <Precursor_InChI>
InChI=1S/C21H28O2/c1-4-21(23)10-8-18-19-13(2)11-14-12-15(22)5-6-16(14)17(19)7-9-20(18,21)3/h1,13,17-19,23H,5-12H2,2-3H3/t13-,17-,18+,19-,20+,21+/m1/s1

> <Precursor_InChIKey>
WZDGZWOAQTVYBX-XOINTXKNSA-N

> <Precursor_ALogP>


> <Precursor_Major_Isotope_Mass>
312.2089

$$$$
BTM00008
  CDK     09122622442D

 24 27  0  0  1  0  0  0  0  0999 V2000
    5.9215    3.6566    0.0000 C   0  0  0  0  0  0  0  0  0  0  0  0
    4.6157    2.9183    0.0000 C   0  0  0  0  0  0  0  0  0  0  0  0
    3.3100    2.1800    0.0000 C   0  0  2  0  0  0  0  0  0  0  0  0
    2.9604    3.6387    0.0000 O   0  0  0  0  0  0  0  0  0  0  0  0
    4.1800    0.9600    0.0000 C   0  0  0  0  0  0  0  0  0  0  0  0
    3.2800   -0.2500    0.0000 C   0  0  0  0  0  0  0  0  0  0  0  0
    1.8600    0.2500    0.0000 C   0  0  1  0  0  0  0  0  0  0  0  0
    0.5700   -0.4900    0.0000 C   0  0  2  0  0  0  0  0  0  0  0  0
    0.5700   -1.9900    0.0000 C   0  0  2  0  0  0  0  0  0  0  0  0
    1.8677   -2.7424    0.0000 C   0  0  0  0  0  0  0  0  0  0  0  0
   -0.7400   -2.7400    0.0000 C   0  0  0  0  0  0  0  0  0  0  0  0
   -2.0300   -1.9800    0.0000 C   0  0  0  0  0  0  0  0  0  0  0  0
   -2.0200   -0.4800    0.0000 C   0  0  0  0  0  0  0  0  0  0  0  0
   -3.3200    0.2700    0.0000 C   0  0  0  0  0  0  0  0  0  0  0  0
   -4.6200   -0.4800    0.0000 C   0  0  0  0  0  0  0  0  0  0  0  0
   -4.6200   -1.9800    0.0000 C   0  0  0  0  0  0  0  0  0  0  0  0
   -5.9189   -2.7302    0.0000 O   0  0  0  0  0  0  0  0  0  0  0  0
   -3.3200   -2.7300    0.0000 C   0  0  0  0  0  0  0  0  0  0  0  0
   -0.7200    0.2600    0.0000 C   0  0  1  0  0  0  0  0  0  0  0  0
   -0.7100    1.7600    0.0000 C   0  0  0  0  0  0  0  0  0  0  0  0
    0.5900    2.5000    0.0000 C   0  0  0  0  0  0  0  0  0  0  0  0
    1.8800    1.7300    0.0000 C   0  0  2  0  0  0  0  0  0  0  0  0
    2.0546    3.2198    0.0000 C   0  0  0  0  0  0  0  0  0  0  0  0
    0.8516    4.1159    0.0000 O   0  0  0  0  0  0  0  0  0  0  0  0
  1  2  3  0  0  0  0
  3  2  1  6  0  0  0
  3  4  1  1  0  0  0
  3  5  1  0  0  0  0
  5  6  1  0  0  0  0
  7  6  1  1  0  0  0
  8  7  1  6  0  0  0
  8  9  1  0  0  0  0
  9 10  1  6  0  0  0
  9 11  1  0  0  0  0
 11 12  1  0  0  0  0
 12 13  2  0  0  0  0
 13 14  1  0  0  0  0
 14 15  1  0  0  0  0
 15 16  1  0  0  0  0
 16 17  2  0  0  0  0
 16 18  1  0  0  0  0
 12 18  1  0  0  0  0
 13 19  1  0  0  0  0
  8 19  1  0  0  0  0
 19 20  1  1  0  0  0
 20 21  1  0  0  0  0
 21 22  1  0  0  0  0
  7 22  1  0  0  0  0
  3 22  1  0  0  0  0
 22 23  1  1  0  0  0
 24 23  1  0  0  0  0
M  END
> <InChI>
InChI=1S/C21H28O3/c1-3-21(24)9-7-18-19-13(2)10-14-11-15(23)4-5-16(14)17(19)6-8-20(18,21)12-22/h1,13,17-19,22,24H,4-12H2,2H3/t13-,17-,18+,19-,20-,21+/m1/s1

> <InChIKey>
ONNIQBGVXUYCJE-LZUJNOADSA-N

> <SMILES>
C#C[C@]1(O)CC[C@H]2[C@@H]3[C@H](C)CC4=C(CCC(=O)C4)[C@H]3CC[C@@]21CO

> <Synonyms>


> <PUBCHEM_CID>


> <Molecular_formula>
C21H28O3

> <Major_Isotope_Mass>
328.20384475599997

> <ALogP>
3.1097999999999972

> <Lipinski_Violations>
0

> <Insecticide_Likeness_Violations>
0

> <Post_Em_Herbicide_Likeness_Violations>
0

> <Metabolite_ID>
BTM00008

> <Reaction>
Hydroxylation of methyl carbon adjacent to aliphatic ring

> <Reaction_ID>
BTMR0054

> <Enzyme(s)>
CYP2B6
CYP2C8
CYP2C9
CYP2C19
CYP2D6
CYP3A4

> <Biosystem>
HUMAN

> <Precursor_ID>


> <Precursor_SMILES>
C#C[C@]1(O)CC[C@H]2[C@@H]3[C@H](C)CC4=C(CCC(=O)C4)[C@H]3CC[C@@]21C

> <Precursor_InChI>
InChI=1S/C21H28O2/c1-4-21(23)10-8-18-19-13(2)11-14-12-15(22)5-6-16(14)17(19)7-9-20(18,21)3/h1,13,17-19,23H,5-12H2,2-3H3/t13-,17-,18+,19-,20+,21+/m1/s1

> <Precursor_InChIKey>
WZDGZWOAQTVYBX-XOINTXKNSA-N

> <Precursor_ALogP>


> <Precursor_Major_Isotope_Mass>
312.2089

$$$$
BTM00009
  CDK     09122622442D

 24 27  0  0  1  0  0  0  0  0999 V2000
    6.3039    2.7760    0.0000 C   0  0  0  0  0  0  0  0  0  0  0  0
    4.9982    2.0378    0.0000 C   0  0  0  0  0  0  0  0  0  0  0  0
    3.6924    1.2995    0.0000 C   0  0  2  0  0  0  0  0  0  0  0  0
    2.7124    3.5558    0.0000 O   0  0  0  0  0  0  0  0  0  0  0  0
    4.5624    0.0795    0.0000 C   0  0  0  0  0  0  0  0  0  0  0  0
    3.6624   -1.1305    0.0000 C   0  0  0  0  0  0  0  0  0  0  0  0
    2.2424   -0.6305    0.0000 C   0  0  1  0  0  0  0  0  0  0  0  0
    0.9524   -1.3705    0.0000 C   0  0  2  0  0  0  0  0  0  0  0  0
    0.9524   -2.8705    0.0000 C   0  0  2  0  0  0  0  0  0  0  0  0
    2.2501   -3.6229    0.0000 C   0  0  0  0  0  0  0  0  0  0  0  0
   -0.3576   -3.6205    0.0000 C   0  0  0  0  0  0  0  0  0  0  0  0
   -1.6476   -2.8605    0.0000 C   0  0  0  0  0  0  0  0  0  0  0  0
   -1.6376   -1.3605    0.0000 C   0  0  0  0  0  0  0  0  0  0  0  0
   -2.9376   -0.6105    0.0000 C   0  0  0  0  0  0  0  0  0  0  0  0
   -4.2376   -1.3605    0.0000 C   0  0  0  0  0  0  0  0  0  0  0  0
   -4.2376   -2.8605    0.0000 C   0  0  0  0  0  0  0  0  0  0  0  0
   -5.5365   -3.6107    0.0000 O   0  0  0  0  0  0  0  0  0  0  0  0
   -2.9376   -3.6105    0.0000 C   0  0  0  0  0  0  0  0  0  0  0  0
   -0.3376   -0.6205    0.0000 C   0  0  1  0  0  0  0  0  0  0  0  0
   -0.3276    0.8795    0.0000 C   0  0  0  0  0  0  0  0  0  0  0  0
    0.9724    1.6195    0.0000 C   0  0  0  0  0  0  0  0  0  0  0  0
    2.2624    0.8495    0.0000 C   0  0  2  0  0  0  0  0  0  0  0  0
    3.2587   -0.2719    0.0000 C   0  0  0  0  0  0  0  0  0  0  0  0
    2.2474   -5.1229    0.0000 O   0  0  0  0  0  0  0  0  0  0  0  0
  1  2  3  0  0  0  0
  3  2  1  6  0  0  0
  3  4  1  1  0  0  0
  3  5  1  0  0  0  0
  5  6  1  0  0  0  0
  7  6  1  1  0  0  0
  8  7  1  6  0  0  0
  8  9  1  0  0  0  0
  9 10  1  6  0  0  0
  9 11  1  0  0  0  0
 11 12  1  0  0  0  0
 12 13  2  0  0  0  0
 13 14  1  0  0  0  0
 14 15  1  0  0  0  0
 15 16  1  0  0  0  0
 16 17  2  0  0  0  0
 16 18  1  0  0  0  0
 12 18  1  0  0  0  0
 13 19  1  0  0  0  0
  8 19  1  0  0  0  0
 19 20  1  1  0  0  0
 20 21  1  0  0  0  0
 21 22  1  0  0  0  0
  7 22  1  0  0  0  0
  3 22  1  0  0  0  0
 22 23  1  1  0  0  0
 24 10  1  0  0  0  0
M  END
> <InChI>
InChI=1S/C21H28O3/c1-3-21(24)9-7-18-19-14(12-22)10-13-11-15(23)4-5-16(13)17(19)6-8-20(18,21)2/h1,14,17-19,22,24H,4-12H2,2H3/t14-,17+,18-,19+,20-,21-/m0/s1

> <InChIKey>
IVEAJNTWSJTBEZ-ADWMHYPASA-N

> <SMILES>
C#C[C@]1(O)CC[C@H]2[C@@H]3[C@H](CO)CC4=C(CCC(=O)C4)[C@H]3CC[C@@]21C

> <Synonyms>


> <PUBCHEM_CID>


> <Molecular_formula>
C21H28O3

> <Major_Isotope_Mass>
328.20384475599997

> <ALogP>
3.0422999999999973

> <Lipinski_Violations>
0

> <Insecticide_Likeness_Violations>
0

> <Post_Em_Herbicide_Likeness_Violations>
0

> <Metabolite_ID>
BTM00009

> <Reaction>
Hydroxylation of methyl carbon adjacent to aliphatic ring

> <Reaction_ID>
BTMR0054

> <Enzyme(s)>
CYP2B6
CYP2C8
CYP2C9
CYP2C19
CYP2D6
CYP3A4

> <Biosystem>
HUMAN

> <Precursor_ID>


> <Precursor_SMILES>
C#C[C@]1(O)CC[C@H]2[C@@H]3[C@H](C)CC4=C(CCC(=O)C4)[C@H]3CC[C@@]21C

> <Precursor_InChI>
InChI=1S/C21H28O2/c1-4-21(23)10-8-18-19-13(2)11-14-12-15(22)5-6-16(14)17(19)7-9-20(18,21)3/h1,13,17-19,23H,5-12H2,2-3H3/t13-,17-,18+,19-,20+,21+/m1/s1

> <Precursor_InChIKey>
WZDGZWOAQTVYBX-XOINTXKNSA-N

> <Precursor_ALogP>


> <Precursor_Major_Isotope_Mass>
312.2089

$$$$
BTM00010
  CDK     09122622442D

 23 26  0  0  1  0  0  0  0  0999 V2000
    6.6380    3.0206    0.0000 C   0  0  0  0  0  0  0  0  0  0  0  0
    5.3384    2.2714    0.0000 C   0  0  0  0  0  0  0  0  0  0  0  0
    4.0389    1.5223    0.0000 C   0  0  2  0  0  0  0  0  0  0  0  0
    3.0424    3.7714    0.0000 O   0  0  0  0  0  0  0  0  0  0  0  0
    4.9189    0.3123    0.0000 C   0  0  0  0  0  0  0  0  0  0  0  0
    4.0389   -0.8977    0.0000 C   0  0  0  0  0  0  0  0  0  0  0  0
    2.6089   -0.4377    0.0000 C   0  0  1  0  0  0  0  0  0  0  0  0
    1.3089   -1.1877    0.0000 C   0  0  2  0  0  0  0  0  0  0  0  0
    1.3089   -2.6877    0.0000 C   0  0  2  0  0  0  0  0  0  0  0  0
    2.6078   -3.4379    0.0000 C   0  0  0  0  0  0  0  0  0  0  0  0
    0.0089   -3.4377    0.0000 C   0  0  0  0  0  0  0  0  0  0  0  0
   -1.2911   -2.6877    0.0000 C   0  0  0  0  0  0  0  0  0  0  0  0
   -1.2911   -1.1877    0.0000 C   0  0  0  0  0  0  0  0  0  0  0  0
   -2.5911   -0.4377    0.0000 C   0  0  0  0  0  0  0  0  0  0  0  0
   -3.8911   -1.1877    0.0000 C   0  0  0  0  0  0  0  0  0  0  0  0
   -3.8911   -2.6877    0.0000 C   0  0  0  0  0  0  0  0  0  0  0  0
   -5.1900   -3.4379    0.0000 O   0  0  0  0  0  0  0  0  0  0  0  0
   -2.5911   -3.4377    0.0000 C   0  0  0  0  0  0  0  0  0  0  0  0
    0.0089   -0.4377    0.0000 C   0  0  1  0  0  0  0  0  0  0  0  0
    0.0089    1.0623    0.0000 C   0  0  0  0  0  0  0  0  0  0  0  0
    1.3089    1.8123    0.0000 C   0  0  0  0  0  0  0  0  0  0  0  0
    2.6089    1.0623    0.0000 C   0  0  2  0  0  0  0  0  0  0  0  0
    3.6075   -0.0570    0.0000 C   0  0  0  0  0  0  0  0  0  0  0  0
  1  2  3  0  0  0  0
  3  2  1  6  0  0  0
  3  4  1  1  0  0  0
  3  5  1  0  0  0  0
  5  6  1  0  0  0  0
  7  6  1  1  0  0  0
  8  7  1  6  0  0  0
  8  9  1  0  0  0  0
  9 10  1  6  0  0  0
  9 11  1  0  0  0  0
 11 12  1  0  0  0  0
 12 13  2  0  0  0  0
 13 14  1  0  0  0  0
 14 15  1  0  0  0  0
 15 16  1  0  0  0  0
 16 17  1  0  0  0  0
 16 18  1  0  0  0  0
 12 18  1  0  0  0  0
 13 19  1  0  0  0  0
  8 19  1  0  0  0  0
 19 20  1  1  0  0  0
 20 21  1  0  0  0  0
 21 22  1  0  0  0  0
  7 22  1  0  0  0  0
  3 22  1  0  0  0  0
 22 23  1  1  0  0  0
M  END
> <InChI>
InChI=1S/C21H30O2/c1-4-21(23)10-8-18-19-13(2)11-14-12-15(22)5-6-16(14)17(19)7-9-20(18,21)3/h1,13,15,17-19,22-23H,5-12H2,2-3H3/t13-,15?,17-,18+,19-,20+,21+/m1/s1

> <InChIKey>
YLEUWNOTNJZCBN-ZZMONJEGSA-N

> <SMILES>
C#C[C@]1(O)CC[C@H]2[C@@H]3[C@H](C)CC4=C(CCC(O)C4)[C@H]3CC[C@@]21C

> <Synonyms>


> <PUBCHEM_CID>


> <Molecular_formula>
C21H30O2

> <Major_Isotope_Mass>
314.2245802

> <ALogP>
4.526399999999997

> <Lipinski_Violations>
0

> <Insecticide_Likeness_Violations>
0

> <Post_Em_Herbicide_Likeness_Violations>
0

> <Metabolite_ID>
BTM00010

> <Reaction>
Reduction of ketone to alcohol

> <Reaction_ID>
BTMR1171

> <Enzyme(s)>
CYP2C9

> <Biosystem>
HUMAN

> <Precursor_ID>


> <Precursor_SMILES>
C#C[C@]1(O)CC[C@H]2[C@@H]3[C@H](C)CC4=C(CCC(=O)C4)[C@H]3CC[C@@]21C

> <Precursor_InChI>
InChI=1S/C21H28O2/c1-4-21(23)10-8-18-19-13(2)11-14-12-15(22)5-6-16(14)17(19)7-9-20(18,21)3/h1,13,17-19,23H,5-12H2,2-3H3/t13-,17-,18+,19-,20+,21+/m1/s1

> <Precursor_InChIKey>
WZDGZWOAQTVYBX-XOINTXKNSA-N

> <Precursor_ALogP>


> <Precursor_Major_Isotope_Mass>
312.2089

$$$$
